ISO-10303-21;
HEADER;
FILE_DESCRIPTION( ( 'STEP Version 203' ), '1' );
FILE_NAME( 'C:/Training Content Development/ANSYS Mechanical Linear and Nonlinear Dynamics/Mechanical_Linear_and_Nonlinear_Dynamics_18.0_v1/Module_03/Modal_Resources/Fan.stp', '04/24/17 17:13:56', ( 'mmehalic' ), ( '  ' ), 'PSStep 17.0.49', 'DesignModeler STEP Output', '  ' );
FILE_SCHEMA( ( 'CONFIG_CONTROL_DESIGN' ) );
ENDSEC;
DATA;
#1 = DESIGN_CONTEXT( '', #27, 'design' );
#2 = APPLICATION_PROTOCOL_DEFINITION( 'international standard', 'config_control_design', 1994, #27 );
#3 = PRODUCT_CATEGORY_RELATIONSHIP( 'NONE', 'NONE', #28, #29 );
#4 = DATE_AND_TIME( #30, #31 );
#5 = DATE_TIME_ROLE( 'creation_date' );
#6 = DATE_TIME_ROLE( 'classification_date' );
#7 = PERSON_AND_ORGANIZATION_ROLE( 'creator' );
#8 = PERSON_AND_ORGANIZATION_ROLE( 'design_supplier' );
#9 = PERSON_AND_ORGANIZATION_ROLE( 'classification_officer' );
#10 = PERSON_AND_ORGANIZATION_ROLE( 'design_owner' );
#11 = APPROVAL_PERSON_ORGANIZATION( #32, #33, #34 );
#12 = APPROVAL_DATE_TIME( #4, #33 );
#13 = CC_DESIGN_APPROVAL( #33, ( #35, #36, #37 ) );
#14 = CC_DESIGN_DATE_AND_TIME_ASSIGNMENT( #4, #5, ( #37 ) );
#15 = CC_DESIGN_DATE_AND_TIME_ASSIGNMENT( #4, #6, ( #35 ) );
#16 = CC_DESIGN_PERSON_AND_ORGANIZATION_ASSIGNMENT( #32, #10, ( #38 ) );
#17 = CC_DESIGN_PERSON_AND_ORGANIZATION_ASSIGNMENT( #32, #7, ( #37 ) );
#18 = CC_DESIGN_PERSON_AND_ORGANIZATION_ASSIGNMENT( #32, #7, ( #36 ) );
#19 = CC_DESIGN_PERSON_AND_ORGANIZATION_ASSIGNMENT( #32, #8, ( #36 ) );
#20 = CC_DESIGN_SECURITY_CLASSIFICATION( #35, ( #36 ) );
#21 = CC_DESIGN_PERSON_AND_ORGANIZATION_ASSIGNMENT( #32, #9, ( #35 ) );
#22 = SHAPE_DEFINITION_REPRESENTATION( #39, #40 );
#23 =  ( GEOMETRIC_REPRESENTATION_CONTEXT( 3 )GLOBAL_UNCERTAINTY_ASSIGNED_CONTEXT( ( #43 ) )GLOBAL_UNIT_ASSIGNED_CONTEXT( ( #45, #46, #47 ) )REPRESENTATION_CONTEXT( 'NONE', 'WORKSPACE' ) );
#27 = APPLICATION_CONTEXT( 'configuration controlled 3D designs of mechanical parts and assemblies' );
#28 = PRODUCT_CATEGORY( 'part', 'NONE' );
#29 = PRODUCT_RELATED_PRODUCT_CATEGORY( 'detail', ' ', ( #38 ) );
#30 = CALENDAR_DATE( 2017, 24, 3 );
#31 = LOCAL_TIME( 17, 13, 57.0000000000000, #49 );
#32 = PERSON_AND_ORGANIZATION( #50, #51 );
#33 = APPROVAL( #52, 'SOLID MODEL' );
#34 = APPROVAL_ROLE( 'APPROVED' );
#35 = SECURITY_CLASSIFICATION( '', '', #53 );
#36 = PRODUCT_DEFINITION_FORMATION_WITH_SPECIFIED_SOURCE( ' ', 'NONE', #38, .NOT_KNOWN. );
#37 = PRODUCT_DEFINITION( 'NONE', 'NONE', #36, #1 );
#38 = PRODUCT( '1', '1', 'PART-1-DESC', ( #54 ) );
#39 = PRODUCT_DEFINITION_SHAPE( 'NONE', 'NONE', #37 );
#40 = ADVANCED_BREP_SHAPE_REPRESENTATION( '1', ( #55, #56 ), #23 );
#43 = UNCERTAINTY_MEASURE_WITH_UNIT( LENGTH_MEASURE( 1.00000000000000E-006 ), #45, '', '' );
#45 =  ( CONVERSION_BASED_UNIT( 'METRE', #59 )LENGTH_UNIT(  )NAMED_UNIT( #62 ) );
#46 =  ( NAMED_UNIT( #64 )PLANE_ANGLE_UNIT(  )SI_UNIT( $, .RADIAN. ) );
#47 =  ( NAMED_UNIT( #64 )SI_UNIT( $, .STERADIAN. )SOLID_ANGLE_UNIT(  ) );
#49 = COORDINATED_UNIVERSAL_TIME_OFFSET( 5, 0, .BEHIND. );
#50 = PERSON( '', 'UNSPECIFIED', $, $, $, $ );
#51 = ORGANIZATION( 'UNSPECIFIED', 'UNSPECIFIED', 'UNSPECIFIED' );
#52 = APPROVAL_STATUS( 'approved' );
#53 = SECURITY_CLASSIFICATION_LEVEL( 'unclassified' );
#54 = MECHANICAL_CONTEXT( '', #27, 'mechanical' );
#55 = MANIFOLD_SOLID_BREP( '1', #70 );
#56 = AXIS2_PLACEMENT_3D( '', #71, #72, #73 );
#59 = LENGTH_MEASURE_WITH_UNIT( LENGTH_MEASURE( 1.00000000000000 ), #74 );
#62 = DIMENSIONAL_EXPONENTS( 1.00000000000000, 0.000000000000000, 0.000000000000000, 0.000000000000000, 0.000000000000000, 0.000000000000000, 0.000000000000000 );
#64 = DIMENSIONAL_EXPONENTS( 0.000000000000000, 0.000000000000000, 0.000000000000000, 0.000000000000000, 0.000000000000000, 0.000000000000000, 0.000000000000000 );
#70 = CLOSED_SHELL( '', ( #75, #76, #77, #78, #79, #80, #81, #82, #83, #84, #85, #86, #87, #88, #89, #90, #91, #92, #93, #94, #95, #96, #97, #98, #99, #100, #101, #102, #103, #104, #105, #106, #107, #108, #109, #110, #111, #112, #113, #114, #115, #116, #117, #118, #119, #120, #121, #122, #123, #124, #125, #126, #127, #128, #129, #130, #131, #132, #133, #134, #135, #136, #137, #138, #139, #140, #141, #142, #143, #144, #145, #146, #147, #148, #149, #150, #151, #152, #153, #154, #155, #156, #157, #158, #159, #160, #161, #162, #163, #164, #165, #166, #167, #168, #169, #170, #171, #172, #173, #174, #175, #176, #177, #178, #179, #180, #181, #182, #183, #184, #185, #186, #187, #188, #189, #190, #191, #192, #193, #194, #195, #196, #197, #198 ) );
#71 = CARTESIAN_POINT( '', ( 0.000000000000000, 0.000000000000000, 0.000000000000000 ) );
#72 = DIRECTION( '', ( 0.000000000000000, 0.000000000000000, 1.00000000000000 ) );
#73 = DIRECTION( '', ( 1.00000000000000, 0.000000000000000, 0.000000000000000 ) );
#74 =  ( LENGTH_UNIT(  )NAMED_UNIT( #62 )SI_UNIT( $, .METRE. ) );
#75 = ADVANCED_FACE( '', ( #200, #201 ), #202, .F. );
#76 = ADVANCED_FACE( '', ( #203 ), #204, .T. );
#77 = ADVANCED_FACE( '', ( #205, #206 ), #207, .T. );
#78 = ADVANCED_FACE( '', ( #208, #209, #210, #211, #212, #213, #214, #215, #216, #217, #218, #219, #220, #221 ), #222, .F. );
#79 = ADVANCED_FACE( '', ( #223, #224, #225, #226, #227, #228, #229, #230, #231, #232, #233, #234, #235, #236 ), #237, .T. );
#80 = ADVANCED_FACE( '', ( #238 ), #239, .T. );
#81 = ADVANCED_FACE( '', ( #240 ), #241, .F. );
#82 = ADVANCED_FACE( '', ( #242 ), #243, .F. );
#83 = ADVANCED_FACE( '', ( #244 ), #245, .T. );
#84 = ADVANCED_FACE( '', ( #246 ), #247, .F. );
#85 = ADVANCED_FACE( '', ( #248 ), #249, .F. );
#86 = ADVANCED_FACE( '', ( #250 ), #251, .T. );
#87 = ADVANCED_FACE( '', ( #252 ), #253, .F. );
#88 = ADVANCED_FACE( '', ( #254 ), #255, .F. );
#89 = ADVANCED_FACE( '', ( #256 ), #257, .T. );
#90 = ADVANCED_FACE( '', ( #258 ), #259, .F. );
#91 = ADVANCED_FACE( '', ( #260 ), #261, .F. );
#92 = ADVANCED_FACE( '', ( #262 ), #263, .T. );
#93 = ADVANCED_FACE( '', ( #264 ), #265, .T. );
#94 = ADVANCED_FACE( '', ( #266 ), #267, .F. );
#95 = ADVANCED_FACE( '', ( #268 ), #269, .T. );
#96 = ADVANCED_FACE( '', ( #270 ), #271, .T. );
#97 = ADVANCED_FACE( '', ( #272 ), #273, .F. );
#98 = ADVANCED_FACE( '', ( #274 ), #275, .F. );
#99 = ADVANCED_FACE( '', ( #276 ), #277, .T. );
#100 = ADVANCED_FACE( '', ( #278 ), #279, .T. );
#101 = ADVANCED_FACE( '', ( #280 ), #281, .F. );
#102 = ADVANCED_FACE( '', ( #282 ), #283, .T. );
#103 = ADVANCED_FACE( '', ( #284 ), #285, .F. );
#104 = ADVANCED_FACE( '', ( #286 ), #287, .F. );
#105 = ADVANCED_FACE( '', ( #288 ), #289, .T. );
#106 = ADVANCED_FACE( '', ( #290 ), #291, .T. );
#107 = ADVANCED_FACE( '', ( #292 ), #293, .F. );
#108 = ADVANCED_FACE( '', ( #294 ), #295, .T. );
#109 = ADVANCED_FACE( '', ( #296 ), #297, .F. );
#110 = ADVANCED_FACE( '', ( #298 ), #299, .F. );
#111 = ADVANCED_FACE( '', ( #300 ), #301, .T. );
#112 = ADVANCED_FACE( '', ( #302 ), #303, .T. );
#113 = ADVANCED_FACE( '', ( #304 ), #305, .F. );
#114 = ADVANCED_FACE( '', ( #306 ), #307, .T. );
#115 = ADVANCED_FACE( '', ( #308 ), #309, .F. );
#116 = ADVANCED_FACE( '', ( #310 ), #311, .F. );
#117 = ADVANCED_FACE( '', ( #312 ), #313, .T. );
#118 = ADVANCED_FACE( '', ( #314 ), #315, .T. );
#119 = ADVANCED_FACE( '', ( #316 ), #317, .F. );
#120 = ADVANCED_FACE( '', ( #318 ), #319, .T. );
#121 = ADVANCED_FACE( '', ( #320 ), #321, .F. );
#122 = ADVANCED_FACE( '', ( #322 ), #323, .F. );
#123 = ADVANCED_FACE( '', ( #324 ), #325, .T. );
#124 = ADVANCED_FACE( '', ( #326 ), #327, .T. );
#125 = ADVANCED_FACE( '', ( #328 ), #329, .F. );
#126 = ADVANCED_FACE( '', ( #330 ), #331, .T. );
#127 = ADVANCED_FACE( '', ( #332 ), #333, .F. );
#128 = ADVANCED_FACE( '', ( #334 ), #335, .F. );
#129 = ADVANCED_FACE( '', ( #336 ), #337, .T. );
#130 = ADVANCED_FACE( '', ( #338 ), #339, .T. );
#131 = ADVANCED_FACE( '', ( #340 ), #341, .F. );
#132 = ADVANCED_FACE( '', ( #342 ), #343, .T. );
#133 = ADVANCED_FACE( '', ( #344 ), #345, .F. );
#134 = ADVANCED_FACE( '', ( #346 ), #347, .F. );
#135 = ADVANCED_FACE( '', ( #348 ), #349, .T. );
#136 = ADVANCED_FACE( '', ( #350 ), #351, .T. );
#137 = ADVANCED_FACE( '', ( #352 ), #353, .F. );
#138 = ADVANCED_FACE( '', ( #354 ), #355, .T. );
#139 = ADVANCED_FACE( '', ( #356 ), #357, .F. );
#140 = ADVANCED_FACE( '', ( #358 ), #359, .F. );
#141 = ADVANCED_FACE( '', ( #360 ), #361, .T. );
#142 = ADVANCED_FACE( '', ( #362 ), #363, .T. );
#143 = ADVANCED_FACE( '', ( #364 ), #365, .F. );
#144 = ADVANCED_FACE( '', ( #366 ), #367, .T. );
#145 = ADVANCED_FACE( '', ( #368 ), #369, .F. );
#146 = ADVANCED_FACE( '', ( #370 ), #371, .F. );
#147 = ADVANCED_FACE( '', ( #372 ), #373, .T. );
#148 = ADVANCED_FACE( '', ( #374 ), #375, .T. );
#149 = ADVANCED_FACE( '', ( #376 ), #377, .F. );
#150 = ADVANCED_FACE( '', ( #378 ), #379, .T. );
#151 = ADVANCED_FACE( '', ( #380 ), #381, .F. );
#152 = ADVANCED_FACE( '', ( #382 ), #383, .F. );
#153 = ADVANCED_FACE( '', ( #384 ), #385, .T. );
#154 = ADVANCED_FACE( '', ( #386 ), #387, .T. );
#155 = ADVANCED_FACE( '', ( #388 ), #389, .F. );
#156 = ADVANCED_FACE( '', ( #390 ), #391, .T. );
#157 = ADVANCED_FACE( '', ( #392 ), #393, .F. );
#158 = ADVANCED_FACE( '', ( #394 ), #395, .T. );
#159 = ADVANCED_FACE( '', ( #396 ), #397, .F. );
#160 = ADVANCED_FACE( '', ( #398 ), #399, .T. );
#161 = ADVANCED_FACE( '', ( #400 ), #401, .F. );
#162 = ADVANCED_FACE( '', ( #402 ), #403, .F. );
#163 = ADVANCED_FACE( '', ( #404 ), #405, .F. );
#164 = ADVANCED_FACE( '', ( #406 ), #407, .T. );
#165 = ADVANCED_FACE( '', ( #408 ), #409, .T. );
#166 = ADVANCED_FACE( '', ( #410 ), #411, .F. );
#167 = ADVANCED_FACE( '', ( #412 ), #413, .F. );
#168 = ADVANCED_FACE( '', ( #414 ), #415, .T. );
#169 = ADVANCED_FACE( '', ( #416 ), #417, .T. );
#170 = ADVANCED_FACE( '', ( #418 ), #419, .F. );
#171 = ADVANCED_FACE( '', ( #420 ), #421, .F. );
#172 = ADVANCED_FACE( '', ( #422 ), #423, .T. );
#173 = ADVANCED_FACE( '', ( #424 ), #425, .T. );
#174 = ADVANCED_FACE( '', ( #426 ), #427, .F. );
#175 = ADVANCED_FACE( '', ( #428 ), #429, .F. );
#176 = ADVANCED_FACE( '', ( #430 ), #431, .T. );
#177 = ADVANCED_FACE( '', ( #432 ), #433, .T. );
#178 = ADVANCED_FACE( '', ( #434 ), #435, .F. );
#179 = ADVANCED_FACE( '', ( #436 ), #437, .F. );
#180 = ADVANCED_FACE( '', ( #438 ), #439, .T. );
#181 = ADVANCED_FACE( '', ( #440 ), #441, .T. );
#182 = ADVANCED_FACE( '', ( #442 ), #443, .F. );
#183 = ADVANCED_FACE( '', ( #444 ), #445, .F. );
#184 = ADVANCED_FACE( '', ( #446 ), #447, .T. );
#185 = ADVANCED_FACE( '', ( #448 ), #449, .T. );
#186 = ADVANCED_FACE( '', ( #450 ), #451, .F. );
#187 = ADVANCED_FACE( '', ( #452 ), #453, .F. );
#188 = ADVANCED_FACE( '', ( #454 ), #455, .T. );
#189 = ADVANCED_FACE( '', ( #456 ), #457, .T. );
#190 = ADVANCED_FACE( '', ( #458 ), #459, .F. );
#191 = ADVANCED_FACE( '', ( #460 ), #461, .F. );
#192 = ADVANCED_FACE( '', ( #462 ), #463, .T. );
#193 = ADVANCED_FACE( '', ( #464 ), #465, .T. );
#194 = ADVANCED_FACE( '', ( #466 ), #467, .F. );
#195 = ADVANCED_FACE( '', ( #468 ), #469, .F. );
#196 = ADVANCED_FACE( '', ( #470 ), #471, .T. );
#197 = ADVANCED_FACE( '', ( #472 ), #473, .T. );
#198 = ADVANCED_FACE( '', ( #474 ), #475, .T. );
#200 = FACE_OUTER_BOUND( '', #476, .T. );
#201 = FACE_OUTER_BOUND( '', #477, .T. );
#202 = CYLINDRICAL_SURFACE( '', #478, 0.0508000000000000 );
#203 = FACE_OUTER_BOUND( '', #479, .T. );
#204 = PLANE( '', #480 );
#205 = FACE_OUTER_BOUND( '', #481, .T. );
#206 = FACE_OUTER_BOUND( '', #482, .T. );
#207 = CYLINDRICAL_SURFACE( '', #483, 0.101600000000000 );
#208 = FACE_OUTER_BOUND( '', #484, .T. );
#209 = FACE_BOUND( '', #485, .T. );
#210 = FACE_BOUND( '', #486, .T. );
#211 = FACE_BOUND( '', #487, .T. );
#212 = FACE_BOUND( '', #488, .T. );
#213 = FACE_BOUND( '', #489, .T. );
#214 = FACE_BOUND( '', #490, .T. );
#215 = FACE_BOUND( '', #491, .T. );
#216 = FACE_BOUND( '', #492, .T. );
#217 = FACE_BOUND( '', #493, .T. );
#218 = FACE_BOUND( '', #494, .T. );
#219 = FACE_BOUND( '', #495, .T. );
#220 = FACE_BOUND( '', #496, .T. );
#221 = FACE_BOUND( '', #497, .T. );
#222 = PLANE( '', #498 );
#223 = FACE_OUTER_BOUND( '', #499, .T. );
#224 = FACE_BOUND( '', #500, .T. );
#225 = FACE_BOUND( '', #501, .T. );
#226 = FACE_BOUND( '', #502, .T. );
#227 = FACE_BOUND( '', #503, .T. );
#228 = FACE_BOUND( '', #504, .T. );
#229 = FACE_BOUND( '', #505, .T. );
#230 = FACE_BOUND( '', #506, .T. );
#231 = FACE_BOUND( '', #507, .T. );
#232 = FACE_BOUND( '', #508, .T. );
#233 = FACE_BOUND( '', #509, .T. );
#234 = FACE_BOUND( '', #510, .T. );
#235 = FACE_BOUND( '', #511, .T. );
#236 = FACE_BOUND( '', #512, .T. );
#237 = PLANE( '', #513 );
#238 = FACE_OUTER_BOUND( '', #514, .T. );
#239 = CYLINDRICAL_SURFACE( '', #515, 0.0317418720589568 );
#240 = FACE_OUTER_BOUND( '', #516, .T. );
#241 = PLANE( '', #517 );
#242 = FACE_OUTER_BOUND( '', #518, .T. );
#243 = CYLINDRICAL_SURFACE( '', #519, 0.0288304969951298 );
#244 = FACE_OUTER_BOUND( '', #520, .T. );
#245 = CYLINDRICAL_SURFACE( '', #521, 0.0317418720589568 );
#246 = FACE_OUTER_BOUND( '', #522, .T. );
#247 = PLANE( '', #523 );
#248 = FACE_OUTER_BOUND( '', #524, .T. );
#249 = CYLINDRICAL_SURFACE( '', #525, 0.0288304969951298 );
#250 = FACE_OUTER_BOUND( '', #526, .T. );
#251 = PLANE( '', #527 );
#252 = FACE_OUTER_BOUND( '', #528, .T. );
#253 = PLANE( '', #529 );
#254 = FACE_OUTER_BOUND( '', #530, .T. );
#255 = CYLINDRICAL_SURFACE( '', #531, 0.0288304969951298 );
#256 = FACE_OUTER_BOUND( '', #532, .T. );
#257 = CYLINDRICAL_SURFACE( '', #533, 0.0317418720589568 );
#258 = FACE_OUTER_BOUND( '', #534, .T. );
#259 = PLANE( '', #535 );
#260 = FACE_OUTER_BOUND( '', #536, .T. );
#261 = PLANE( '', #537 );
#262 = FACE_OUTER_BOUND( '', #538, .T. );
#263 = PLANE( '', #539 );
#264 = FACE_OUTER_BOUND( '', #540, .T. );
#265 = CYLINDRICAL_SURFACE( '', #541, 0.0317418720589568 );
#266 = FACE_OUTER_BOUND( '', #542, .T. );
#267 = PLANE( '', #543 );
#268 = FACE_OUTER_BOUND( '', #544, .T. );
#269 = CYLINDRICAL_SURFACE( '', #545, 0.0317418720589568 );
#270 = FACE_OUTER_BOUND( '', #546, .T. );
#271 = PLANE( '', #547 );
#272 = FACE_OUTER_BOUND( '', #548, .T. );
#273 = CYLINDRICAL_SURFACE( '', #549, 0.0288304969951298 );
#274 = FACE_OUTER_BOUND( '', #550, .T. );
#275 = PLANE( '', #551 );
#276 = FACE_OUTER_BOUND( '', #552, .T. );
#277 = CYLINDRICAL_SURFACE( '', #553, 0.0317418720589568 );
#278 = FACE_OUTER_BOUND( '', #554, .T. );
#279 = PLANE( '', #555 );
#280 = FACE_OUTER_BOUND( '', #556, .T. );
#281 = PLANE( '', #557 );
#282 = FACE_OUTER_BOUND( '', #558, .T. );
#283 = PLANE( '', #559 );
#284 = FACE_OUTER_BOUND( '', #560, .T. );
#285 = CYLINDRICAL_SURFACE( '', #561, 0.0288304969951298 );
#286 = FACE_OUTER_BOUND( '', #562, .T. );
#287 = PLANE( '', #563 );
#288 = FACE_OUTER_BOUND( '', #564, .T. );
#289 = CYLINDRICAL_SURFACE( '', #565, 0.0317418720589568 );
#290 = FACE_OUTER_BOUND( '', #566, .T. );
#291 = PLANE( '', #567 );
#292 = FACE_OUTER_BOUND( '', #568, .T. );
#293 = PLANE( '', #569 );
#294 = FACE_OUTER_BOUND( '', #570, .T. );
#295 = PLANE( '', #571 );
#296 = FACE_OUTER_BOUND( '', #572, .T. );
#297 = CYLINDRICAL_SURFACE( '', #573, 0.0288304969951298 );
#298 = FACE_OUTER_BOUND( '', #574, .T. );
#299 = PLANE( '', #575 );
#300 = FACE_OUTER_BOUND( '', #576, .T. );
#301 = CYLINDRICAL_SURFACE( '', #577, 0.0317418720589568 );
#302 = FACE_OUTER_BOUND( '', #578, .T. );
#303 = PLANE( '', #579 );
#304 = FACE_OUTER_BOUND( '', #580, .T. );
#305 = PLANE( '', #581 );
#306 = FACE_OUTER_BOUND( '', #582, .T. );
#307 = PLANE( '', #583 );
#308 = FACE_OUTER_BOUND( '', #584, .T. );
#309 = CYLINDRICAL_SURFACE( '', #585, 0.0288304969951298 );
#310 = FACE_OUTER_BOUND( '', #586, .T. );
#311 = PLANE( '', #587 );
#312 = FACE_OUTER_BOUND( '', #588, .T. );
#313 = CYLINDRICAL_SURFACE( '', #589, 0.0317418720589568 );
#314 = FACE_OUTER_BOUND( '', #590, .T. );
#315 = PLANE( '', #591 );
#316 = FACE_OUTER_BOUND( '', #592, .T. );
#317 = PLANE( '', #593 );
#318 = FACE_OUTER_BOUND( '', #594, .T. );
#319 = PLANE( '', #595 );
#320 = FACE_OUTER_BOUND( '', #596, .T. );
#321 = CYLINDRICAL_SURFACE( '', #597, 0.0288304969951298 );
#322 = FACE_OUTER_BOUND( '', #598, .T. );
#323 = PLANE( '', #599 );
#324 = FACE_OUTER_BOUND( '', #600, .T. );
#325 = CYLINDRICAL_SURFACE( '', #601, 0.0317418720589568 );
#326 = FACE_OUTER_BOUND( '', #602, .T. );
#327 = PLANE( '', #603 );
#328 = FACE_OUTER_BOUND( '', #604, .T. );
#329 = PLANE( '', #605 );
#330 = FACE_OUTER_BOUND( '', #606, .T. );
#331 = PLANE( '', #607 );
#332 = FACE_OUTER_BOUND( '', #608, .T. );
#333 = CYLINDRICAL_SURFACE( '', #609, 0.0288304969951298 );
#334 = FACE_OUTER_BOUND( '', #610, .T. );
#335 = PLANE( '', #611 );
#336 = FACE_OUTER_BOUND( '', #612, .T. );
#337 = CYLINDRICAL_SURFACE( '', #613, 0.0317418720589568 );
#338 = FACE_OUTER_BOUND( '', #614, .T. );
#339 = PLANE( '', #615 );
#340 = FACE_OUTER_BOUND( '', #616, .T. );
#341 = PLANE( '', #617 );
#342 = FACE_OUTER_BOUND( '', #618, .T. );
#343 = PLANE( '', #619 );
#344 = FACE_OUTER_BOUND( '', #620, .T. );
#345 = CYLINDRICAL_SURFACE( '', #621, 0.0288304969951298 );
#346 = FACE_OUTER_BOUND( '', #622, .T. );
#347 = PLANE( '', #623 );
#348 = FACE_OUTER_BOUND( '', #624, .T. );
#349 = CYLINDRICAL_SURFACE( '', #625, 0.0317418720589568 );
#350 = FACE_OUTER_BOUND( '', #626, .T. );
#351 = PLANE( '', #627 );
#352 = FACE_OUTER_BOUND( '', #628, .T. );
#353 = PLANE( '', #629 );
#354 = FACE_OUTER_BOUND( '', #630, .T. );
#355 = PLANE( '', #631 );
#356 = FACE_OUTER_BOUND( '', #632, .T. );
#357 = CYLINDRICAL_SURFACE( '', #633, 0.0288304969951298 );
#358 = FACE_OUTER_BOUND( '', #634, .T. );
#359 = PLANE( '', #635 );
#360 = FACE_OUTER_BOUND( '', #636, .T. );
#361 = CYLINDRICAL_SURFACE( '', #637, 0.0317418720589568 );
#362 = FACE_OUTER_BOUND( '', #638, .T. );
#363 = PLANE( '', #639 );
#364 = FACE_OUTER_BOUND( '', #640, .T. );
#365 = PLANE( '', #641 );
#366 = FACE_OUTER_BOUND( '', #642, .T. );
#367 = PLANE( '', #643 );
#368 = FACE_OUTER_BOUND( '', #644, .T. );
#369 = CYLINDRICAL_SURFACE( '', #645, 0.0288304969951298 );
#370 = FACE_OUTER_BOUND( '', #646, .T. );
#371 = PLANE( '', #647 );
#372 = FACE_OUTER_BOUND( '', #648, .T. );
#373 = CYLINDRICAL_SURFACE( '', #649, 0.0317418720589568 );
#374 = FACE_OUTER_BOUND( '', #650, .T. );
#375 = PLANE( '', #651 );
#376 = FACE_OUTER_BOUND( '', #652, .T. );
#377 = PLANE( '', #653 );
#378 = FACE_OUTER_BOUND( '', #654, .T. );
#379 = PLANE( '', #655 );
#380 = FACE_OUTER_BOUND( '', #656, .T. );
#381 = CYLINDRICAL_SURFACE( '', #657, 0.0288304969951298 );
#382 = FACE_OUTER_BOUND( '', #658, .T. );
#383 = PLANE( '', #659 );
#384 = FACE_OUTER_BOUND( '', #660, .T. );
#385 = CYLINDRICAL_SURFACE( '', #661, 0.0317418720589568 );
#386 = FACE_OUTER_BOUND( '', #662, .T. );
#387 = PLANE( '', #663 );
#388 = FACE_OUTER_BOUND( '', #664, .T. );
#389 = CYLINDRICAL_SURFACE( '', #665, 0.0288304969951298 );
#390 = FACE_OUTER_BOUND( '', #666, .T. );
#391 = PLANE( '', #667 );
#392 = FACE_OUTER_BOUND( '', #668, .T. );
#393 = PLANE( '', #669 );
#394 = FACE_OUTER_BOUND( '', #670, .T. );
#395 = CYLINDRICAL_SURFACE( '', #671, 0.0317418720589568 );
#396 = FACE_OUTER_BOUND( '', #672, .T. );
#397 = CYLINDRICAL_SURFACE( '', #673, 0.0288304969951298 );
#398 = FACE_OUTER_BOUND( '', #674, .T. );
#399 = PLANE( '', #675 );
#400 = FACE_OUTER_BOUND( '', #676, .T. );
#401 = PLANE( '', #677 );
#402 = FACE_OUTER_BOUND( '', #678, .T. );
#403 = CYLINDRICAL_SURFACE( '', #679, 0.0288304969951298 );
#404 = FACE_OUTER_BOUND( '', #680, .T. );
#405 = PLANE( '', #681 );
#406 = FACE_OUTER_BOUND( '', #682, .T. );
#407 = PLANE( '', #683 );
#408 = FACE_OUTER_BOUND( '', #684, .T. );
#409 = CYLINDRICAL_SURFACE( '', #685, 0.0317418720589568 );
#410 = FACE_OUTER_BOUND( '', #686, .T. );
#411 = CYLINDRICAL_SURFACE( '', #687, 0.0288304969951298 );
#412 = FACE_OUTER_BOUND( '', #688, .T. );
#413 = PLANE( '', #689 );
#414 = FACE_OUTER_BOUND( '', #690, .T. );
#415 = PLANE( '', #691 );
#416 = FACE_OUTER_BOUND( '', #692, .T. );
#417 = CYLINDRICAL_SURFACE( '', #693, 0.0317418720589568 );
#418 = FACE_OUTER_BOUND( '', #694, .T. );
#419 = CYLINDRICAL_SURFACE( '', #695, 0.0288304969951298 );
#420 = FACE_OUTER_BOUND( '', #696, .T. );
#421 = PLANE( '', #697 );
#422 = FACE_OUTER_BOUND( '', #698, .T. );
#423 = PLANE( '', #699 );
#424 = FACE_OUTER_BOUND( '', #700, .T. );
#425 = CYLINDRICAL_SURFACE( '', #701, 0.0317418720589568 );
#426 = FACE_OUTER_BOUND( '', #702, .T. );
#427 = CYLINDRICAL_SURFACE( '', #703, 0.0288304969951298 );
#428 = FACE_OUTER_BOUND( '', #704, .T. );
#429 = PLANE( '', #705 );
#430 = FACE_OUTER_BOUND( '', #706, .T. );
#431 = PLANE( '', #707 );
#432 = FACE_OUTER_BOUND( '', #708, .T. );
#433 = CYLINDRICAL_SURFACE( '', #709, 0.0317418720589568 );
#434 = FACE_OUTER_BOUND( '', #710, .T. );
#435 = CYLINDRICAL_SURFACE( '', #711, 0.0288304969951298 );
#436 = FACE_OUTER_BOUND( '', #712, .T. );
#437 = PLANE( '', #713 );
#438 = FACE_OUTER_BOUND( '', #714, .T. );
#439 = PLANE( '', #715 );
#440 = FACE_OUTER_BOUND( '', #716, .T. );
#441 = CYLINDRICAL_SURFACE( '', #717, 0.0317418720589568 );
#442 = FACE_OUTER_BOUND( '', #718, .T. );
#443 = CYLINDRICAL_SURFACE( '', #719, 0.0288304969951298 );
#444 = FACE_OUTER_BOUND( '', #720, .T. );
#445 = PLANE( '', #721 );
#446 = FACE_OUTER_BOUND( '', #722, .T. );
#447 = PLANE( '', #723 );
#448 = FACE_OUTER_BOUND( '', #724, .T. );
#449 = CYLINDRICAL_SURFACE( '', #725, 0.0317418720589568 );
#450 = FACE_OUTER_BOUND( '', #726, .T. );
#451 = CYLINDRICAL_SURFACE( '', #727, 0.0288304969951298 );
#452 = FACE_OUTER_BOUND( '', #728, .T. );
#453 = PLANE( '', #729 );
#454 = FACE_OUTER_BOUND( '', #730, .T. );
#455 = PLANE( '', #731 );
#456 = FACE_OUTER_BOUND( '', #732, .T. );
#457 = CYLINDRICAL_SURFACE( '', #733, 0.0317418720589568 );
#458 = FACE_OUTER_BOUND( '', #734, .T. );
#459 = CYLINDRICAL_SURFACE( '', #735, 0.0288304969951298 );
#460 = FACE_OUTER_BOUND( '', #736, .T. );
#461 = PLANE( '', #737 );
#462 = FACE_OUTER_BOUND( '', #738, .T. );
#463 = PLANE( '', #739 );
#464 = FACE_OUTER_BOUND( '', #740, .T. );
#465 = CYLINDRICAL_SURFACE( '', #741, 0.0317418720589568 );
#466 = FACE_OUTER_BOUND( '', #742, .T. );
#467 = CYLINDRICAL_SURFACE( '', #743, 0.0288304969951298 );
#468 = FACE_OUTER_BOUND( '', #744, .T. );
#469 = PLANE( '', #745 );
#470 = FACE_OUTER_BOUND( '', #746, .T. );
#471 = PLANE( '', #747 );
#472 = FACE_OUTER_BOUND( '', #748, .T. );
#473 = PLANE( '', #749 );
#474 = FACE_OUTER_BOUND( '', #750, .T. );
#475 = PLANE( '', #751 );
#476 = EDGE_LOOP( '', ( #752 ) );
#477 = EDGE_LOOP( '', ( #753 ) );
#478 = AXIS2_PLACEMENT_3D( '', #754, #755, #756 );
#479 = EDGE_LOOP( '', ( #757, #758, #759, #760 ) );
#480 = AXIS2_PLACEMENT_3D( '', #761, #762, #763 );
#481 = EDGE_LOOP( '', ( #764 ) );
#482 = EDGE_LOOP( '', ( #765 ) );
#483 = AXIS2_PLACEMENT_3D( '', #766, #767, #768 );
#484 = EDGE_LOOP( '', ( #769 ) );
#485 = EDGE_LOOP( '', ( #770 ) );
#486 = EDGE_LOOP( '', ( #771, #772, #773, #774 ) );
#487 = EDGE_LOOP( '', ( #775, #776, #777, #778 ) );
#488 = EDGE_LOOP( '', ( #779, #780, #781, #782 ) );
#489 = EDGE_LOOP( '', ( #783, #784, #785, #786 ) );
#490 = EDGE_LOOP( '', ( #787, #788, #789, #790 ) );
#491 = EDGE_LOOP( '', ( #791, #792, #793, #794 ) );
#492 = EDGE_LOOP( '', ( #795, #796, #797, #798 ) );
#493 = EDGE_LOOP( '', ( #799, #800, #801, #802 ) );
#494 = EDGE_LOOP( '', ( #803, #804, #805, #806 ) );
#495 = EDGE_LOOP( '', ( #807, #808, #809, #810 ) );
#496 = EDGE_LOOP( '', ( #811, #812, #813, #814 ) );
#497 = EDGE_LOOP( '', ( #815, #816, #817, #818 ) );
#498 = AXIS2_PLACEMENT_3D( '', #819, #820, #821 );
#499 = EDGE_LOOP( '', ( #822 ) );
#500 = EDGE_LOOP( '', ( #823 ) );
#501 = EDGE_LOOP( '', ( #824, #825, #826, #827 ) );
#502 = EDGE_LOOP( '', ( #828, #829, #830, #831 ) );
#503 = EDGE_LOOP( '', ( #832, #833, #834, #835 ) );
#504 = EDGE_LOOP( '', ( #836, #837, #838, #839 ) );
#505 = EDGE_LOOP( '', ( #840, #841, #842, #843 ) );
#506 = EDGE_LOOP( '', ( #844, #845, #846, #847 ) );
#507 = EDGE_LOOP( '', ( #848, #849, #850, #851 ) );
#508 = EDGE_LOOP( '', ( #852, #853, #854, #855 ) );
#509 = EDGE_LOOP( '', ( #856, #857, #858, #859 ) );
#510 = EDGE_LOOP( '', ( #860, #861, #862, #863 ) );
#511 = EDGE_LOOP( '', ( #864, #865, #866, #867 ) );
#512 = EDGE_LOOP( '', ( #868, #869, #870, #871 ) );
#513 = AXIS2_PLACEMENT_3D( '', #872, #873, #874 );
#514 = EDGE_LOOP( '', ( #875, #876, #877, #878 ) );
#515 = AXIS2_PLACEMENT_3D( '', #879, #880, #881 );
#516 = EDGE_LOOP( '', ( #882, #883, #884, #885 ) );
#517 = AXIS2_PLACEMENT_3D( '', #886, #887, #888 );
#518 = EDGE_LOOP( '', ( #889, #890, #891, #892 ) );
#519 = AXIS2_PLACEMENT_3D( '', #893, #894, #895 );
#520 = EDGE_LOOP( '', ( #896, #897, #898, #899 ) );
#521 = AXIS2_PLACEMENT_3D( '', #900, #901, #902 );
#522 = EDGE_LOOP( '', ( #903, #904, #905, #906 ) );
#523 = AXIS2_PLACEMENT_3D( '', #907, #908, #909 );
#524 = EDGE_LOOP( '', ( #910, #911, #912, #913 ) );
#525 = AXIS2_PLACEMENT_3D( '', #914, #915, #916 );
#526 = EDGE_LOOP( '', ( #917, #918, #919, #920 ) );
#527 = AXIS2_PLACEMENT_3D( '', #921, #922, #923 );
#528 = EDGE_LOOP( '', ( #924, #925, #926, #927 ) );
#529 = AXIS2_PLACEMENT_3D( '', #928, #929, #930 );
#530 = EDGE_LOOP( '', ( #931, #932, #933, #934 ) );
#531 = AXIS2_PLACEMENT_3D( '', #935, #936, #937 );
#532 = EDGE_LOOP( '', ( #938, #939, #940, #941 ) );
#533 = AXIS2_PLACEMENT_3D( '', #942, #943, #944 );
#534 = EDGE_LOOP( '', ( #945, #946, #947, #948 ) );
#535 = AXIS2_PLACEMENT_3D( '', #949, #950, #951 );
#536 = EDGE_LOOP( '', ( #952, #953, #954, #955 ) );
#537 = AXIS2_PLACEMENT_3D( '', #956, #957, #958 );
#538 = EDGE_LOOP( '', ( #959, #960, #961, #962 ) );
#539 = AXIS2_PLACEMENT_3D( '', #963, #964, #965 );
#540 = EDGE_LOOP( '', ( #966, #967, #968, #969 ) );
#541 = AXIS2_PLACEMENT_3D( '', #970, #971, #972 );
#542 = EDGE_LOOP( '', ( #973, #974, #975, #976 ) );
#543 = AXIS2_PLACEMENT_3D( '', #977, #978, #979 );
#544 = EDGE_LOOP( '', ( #980, #981, #982, #983 ) );
#545 = AXIS2_PLACEMENT_3D( '', #984, #985, #986 );
#546 = EDGE_LOOP( '', ( #987, #988, #989, #990 ) );
#547 = AXIS2_PLACEMENT_3D( '', #991, #992, #993 );
#548 = EDGE_LOOP( '', ( #994, #995, #996, #997 ) );
#549 = AXIS2_PLACEMENT_3D( '', #998, #999, #1000 );
#550 = EDGE_LOOP( '', ( #1001, #1002, #1003, #1004 ) );
#551 = AXIS2_PLACEMENT_3D( '', #1005, #1006, #1007 );
#552 = EDGE_LOOP( '', ( #1008, #1009, #1010, #1011 ) );
#553 = AXIS2_PLACEMENT_3D( '', #1012, #1013, #1014 );
#554 = EDGE_LOOP( '', ( #1015, #1016, #1017, #1018 ) );
#555 = AXIS2_PLACEMENT_3D( '', #1019, #1020, #1021 );
#556 = EDGE_LOOP( '', ( #1022, #1023, #1024, #1025 ) );
#557 = AXIS2_PLACEMENT_3D( '', #1026, #1027, #1028 );
#558 = EDGE_LOOP( '', ( #1029, #1030, #1031, #1032 ) );
#559 = AXIS2_PLACEMENT_3D( '', #1033, #1034, #1035 );
#560 = EDGE_LOOP( '', ( #1036, #1037, #1038, #1039 ) );
#561 = AXIS2_PLACEMENT_3D( '', #1040, #1041, #1042 );
#562 = EDGE_LOOP( '', ( #1043, #1044, #1045, #1046 ) );
#563 = AXIS2_PLACEMENT_3D( '', #1047, #1048, #1049 );
#564 = EDGE_LOOP( '', ( #1050, #1051, #1052, #1053 ) );
#565 = AXIS2_PLACEMENT_3D( '', #1054, #1055, #1056 );
#566 = EDGE_LOOP( '', ( #1057, #1058, #1059, #1060 ) );
#567 = AXIS2_PLACEMENT_3D( '', #1061, #1062, #1063 );
#568 = EDGE_LOOP( '', ( #1064, #1065, #1066, #1067 ) );
#569 = AXIS2_PLACEMENT_3D( '', #1068, #1069, #1070 );
#570 = EDGE_LOOP( '', ( #1071, #1072, #1073, #1074 ) );
#571 = AXIS2_PLACEMENT_3D( '', #1075, #1076, #1077 );
#572 = EDGE_LOOP( '', ( #1078, #1079, #1080, #1081 ) );
#573 = AXIS2_PLACEMENT_3D( '', #1082, #1083, #1084 );
#574 = EDGE_LOOP( '', ( #1085, #1086, #1087, #1088 ) );
#575 = AXIS2_PLACEMENT_3D( '', #1089, #1090, #1091 );
#576 = EDGE_LOOP( '', ( #1092, #1093, #1094, #1095 ) );
#577 = AXIS2_PLACEMENT_3D( '', #1096, #1097, #1098 );
#578 = EDGE_LOOP( '', ( #1099, #1100, #1101, #1102 ) );
#579 = AXIS2_PLACEMENT_3D( '', #1103, #1104, #1105 );
#580 = EDGE_LOOP( '', ( #1106, #1107, #1108, #1109 ) );
#581 = AXIS2_PLACEMENT_3D( '', #1110, #1111, #1112 );
#582 = EDGE_LOOP( '', ( #1113, #1114, #1115, #1116 ) );
#583 = AXIS2_PLACEMENT_3D( '', #1117, #1118, #1119 );
#584 = EDGE_LOOP( '', ( #1120, #1121, #1122, #1123 ) );
#585 = AXIS2_PLACEMENT_3D( '', #1124, #1125, #1126 );
#586 = EDGE_LOOP( '', ( #1127, #1128, #1129, #1130 ) );
#587 = AXIS2_PLACEMENT_3D( '', #1131, #1132, #1133 );
#588 = EDGE_LOOP( '', ( #1134, #1135, #1136, #1137 ) );
#589 = AXIS2_PLACEMENT_3D( '', #1138, #1139, #1140 );
#590 = EDGE_LOOP( '', ( #1141, #1142, #1143, #1144 ) );
#591 = AXIS2_PLACEMENT_3D( '', #1145, #1146, #1147 );
#592 = EDGE_LOOP( '', ( #1148, #1149, #1150, #1151 ) );
#593 = AXIS2_PLACEMENT_3D( '', #1152, #1153, #1154 );
#594 = EDGE_LOOP( '', ( #1155, #1156, #1157, #1158 ) );
#595 = AXIS2_PLACEMENT_3D( '', #1159, #1160, #1161 );
#596 = EDGE_LOOP( '', ( #1162, #1163, #1164, #1165 ) );
#597 = AXIS2_PLACEMENT_3D( '', #1166, #1167, #1168 );
#598 = EDGE_LOOP( '', ( #1169, #1170, #1171, #1172 ) );
#599 = AXIS2_PLACEMENT_3D( '', #1173, #1174, #1175 );
#600 = EDGE_LOOP( '', ( #1176, #1177, #1178, #1179 ) );
#601 = AXIS2_PLACEMENT_3D( '', #1180, #1181, #1182 );
#602 = EDGE_LOOP( '', ( #1183, #1184, #1185, #1186 ) );
#603 = AXIS2_PLACEMENT_3D( '', #1187, #1188, #1189 );
#604 = EDGE_LOOP( '', ( #1190, #1191, #1192, #1193 ) );
#605 = AXIS2_PLACEMENT_3D( '', #1194, #1195, #1196 );
#606 = EDGE_LOOP( '', ( #1197, #1198, #1199, #1200 ) );
#607 = AXIS2_PLACEMENT_3D( '', #1201, #1202, #1203 );
#608 = EDGE_LOOP( '', ( #1204, #1205, #1206, #1207 ) );
#609 = AXIS2_PLACEMENT_3D( '', #1208, #1209, #1210 );
#610 = EDGE_LOOP( '', ( #1211, #1212, #1213, #1214 ) );
#611 = AXIS2_PLACEMENT_3D( '', #1215, #1216, #1217 );
#612 = EDGE_LOOP( '', ( #1218, #1219, #1220, #1221 ) );
#613 = AXIS2_PLACEMENT_3D( '', #1222, #1223, #1224 );
#614 = EDGE_LOOP( '', ( #1225, #1226, #1227, #1228 ) );
#615 = AXIS2_PLACEMENT_3D( '', #1229, #1230, #1231 );
#616 = EDGE_LOOP( '', ( #1232, #1233, #1234, #1235 ) );
#617 = AXIS2_PLACEMENT_3D( '', #1236, #1237, #1238 );
#618 = EDGE_LOOP( '', ( #1239, #1240, #1241, #1242 ) );
#619 = AXIS2_PLACEMENT_3D( '', #1243, #1244, #1245 );
#620 = EDGE_LOOP( '', ( #1246, #1247, #1248, #1249 ) );
#621 = AXIS2_PLACEMENT_3D( '', #1250, #1251, #1252 );
#622 = EDGE_LOOP( '', ( #1253, #1254, #1255, #1256 ) );
#623 = AXIS2_PLACEMENT_3D( '', #1257, #1258, #1259 );
#624 = EDGE_LOOP( '', ( #1260, #1261, #1262, #1263 ) );
#625 = AXIS2_PLACEMENT_3D( '', #1264, #1265, #1266 );
#626 = EDGE_LOOP( '', ( #1267, #1268, #1269, #1270 ) );
#627 = AXIS2_PLACEMENT_3D( '', #1271, #1272, #1273 );
#628 = EDGE_LOOP( '', ( #1274, #1275, #1276, #1277 ) );
#629 = AXIS2_PLACEMENT_3D( '', #1278, #1279, #1280 );
#630 = EDGE_LOOP( '', ( #1281, #1282, #1283, #1284 ) );
#631 = AXIS2_PLACEMENT_3D( '', #1285, #1286, #1287 );
#632 = EDGE_LOOP( '', ( #1288, #1289, #1290, #1291 ) );
#633 = AXIS2_PLACEMENT_3D( '', #1292, #1293, #1294 );
#634 = EDGE_LOOP( '', ( #1295, #1296, #1297, #1298 ) );
#635 = AXIS2_PLACEMENT_3D( '', #1299, #1300, #1301 );
#636 = EDGE_LOOP( '', ( #1302, #1303, #1304, #1305 ) );
#637 = AXIS2_PLACEMENT_3D( '', #1306, #1307, #1308 );
#638 = EDGE_LOOP( '', ( #1309, #1310, #1311, #1312 ) );
#639 = AXIS2_PLACEMENT_3D( '', #1313, #1314, #1315 );
#640 = EDGE_LOOP( '', ( #1316, #1317, #1318, #1319 ) );
#641 = AXIS2_PLACEMENT_3D( '', #1320, #1321, #1322 );
#642 = EDGE_LOOP( '', ( #1323, #1324, #1325, #1326 ) );
#643 = AXIS2_PLACEMENT_3D( '', #1327, #1328, #1329 );
#644 = EDGE_LOOP( '', ( #1330, #1331, #1332, #1333 ) );
#645 = AXIS2_PLACEMENT_3D( '', #1334, #1335, #1336 );
#646 = EDGE_LOOP( '', ( #1337, #1338, #1339, #1340 ) );
#647 = AXIS2_PLACEMENT_3D( '', #1341, #1342, #1343 );
#648 = EDGE_LOOP( '', ( #1344, #1345, #1346, #1347 ) );
#649 = AXIS2_PLACEMENT_3D( '', #1348, #1349, #1350 );
#650 = EDGE_LOOP( '', ( #1351, #1352, #1353, #1354 ) );
#651 = AXIS2_PLACEMENT_3D( '', #1355, #1356, #1357 );
#652 = EDGE_LOOP( '', ( #1358, #1359, #1360, #1361 ) );
#653 = AXIS2_PLACEMENT_3D( '', #1362, #1363, #1364 );
#654 = EDGE_LOOP( '', ( #1365, #1366, #1367, #1368 ) );
#655 = AXIS2_PLACEMENT_3D( '', #1369, #1370, #1371 );
#656 = EDGE_LOOP( '', ( #1372, #1373, #1374, #1375 ) );
#657 = AXIS2_PLACEMENT_3D( '', #1376, #1377, #1378 );
#658 = EDGE_LOOP( '', ( #1379, #1380, #1381, #1382 ) );
#659 = AXIS2_PLACEMENT_3D( '', #1383, #1384, #1385 );
#660 = EDGE_LOOP( '', ( #1386, #1387, #1388, #1389 ) );
#661 = AXIS2_PLACEMENT_3D( '', #1390, #1391, #1392 );
#662 = EDGE_LOOP( '', ( #1393, #1394, #1395, #1396 ) );
#663 = AXIS2_PLACEMENT_3D( '', #1397, #1398, #1399 );
#664 = EDGE_LOOP( '', ( #1400, #1401, #1402, #1403 ) );
#665 = AXIS2_PLACEMENT_3D( '', #1404, #1405, #1406 );
#666 = EDGE_LOOP( '', ( #1407, #1408, #1409, #1410 ) );
#667 = AXIS2_PLACEMENT_3D( '', #1411, #1412, #1413 );
#668 = EDGE_LOOP( '', ( #1414, #1415, #1416, #1417 ) );
#669 = AXIS2_PLACEMENT_3D( '', #1418, #1419, #1420 );
#670 = EDGE_LOOP( '', ( #1421, #1422, #1423, #1424 ) );
#671 = AXIS2_PLACEMENT_3D( '', #1425, #1426, #1427 );
#672 = EDGE_LOOP( '', ( #1428, #1429, #1430, #1431 ) );
#673 = AXIS2_PLACEMENT_3D( '', #1432, #1433, #1434 );
#674 = EDGE_LOOP( '', ( #1435, #1436, #1437, #1438 ) );
#675 = AXIS2_PLACEMENT_3D( '', #1439, #1440, #1441 );
#676 = EDGE_LOOP( '', ( #1442, #1443, #1444, #1445 ) );
#677 = AXIS2_PLACEMENT_3D( '', #1446, #1447, #1448 );
#678 = EDGE_LOOP( '', ( #1449, #1450, #1451, #1452 ) );
#679 = AXIS2_PLACEMENT_3D( '', #1453, #1454, #1455 );
#680 = EDGE_LOOP( '', ( #1456, #1457, #1458, #1459 ) );
#681 = AXIS2_PLACEMENT_3D( '', #1460, #1461, #1462 );
#682 = EDGE_LOOP( '', ( #1463, #1464, #1465, #1466 ) );
#683 = AXIS2_PLACEMENT_3D( '', #1467, #1468, #1469 );
#684 = EDGE_LOOP( '', ( #1470, #1471, #1472, #1473 ) );
#685 = AXIS2_PLACEMENT_3D( '', #1474, #1475, #1476 );
#686 = EDGE_LOOP( '', ( #1477, #1478, #1479, #1480 ) );
#687 = AXIS2_PLACEMENT_3D( '', #1481, #1482, #1483 );
#688 = EDGE_LOOP( '', ( #1484, #1485, #1486, #1487 ) );
#689 = AXIS2_PLACEMENT_3D( '', #1488, #1489, #1490 );
#690 = EDGE_LOOP( '', ( #1491, #1492, #1493, #1494 ) );
#691 = AXIS2_PLACEMENT_3D( '', #1495, #1496, #1497 );
#692 = EDGE_LOOP( '', ( #1498, #1499, #1500, #1501 ) );
#693 = AXIS2_PLACEMENT_3D( '', #1502, #1503, #1504 );
#694 = EDGE_LOOP( '', ( #1505, #1506, #1507, #1508 ) );
#695 = AXIS2_PLACEMENT_3D( '', #1509, #1510, #1511 );
#696 = EDGE_LOOP( '', ( #1512, #1513, #1514, #1515 ) );
#697 = AXIS2_PLACEMENT_3D( '', #1516, #1517, #1518 );
#698 = EDGE_LOOP( '', ( #1519, #1520, #1521, #1522 ) );
#699 = AXIS2_PLACEMENT_3D( '', #1523, #1524, #1525 );
#700 = EDGE_LOOP( '', ( #1526, #1527, #1528, #1529 ) );
#701 = AXIS2_PLACEMENT_3D( '', #1530, #1531, #1532 );
#702 = EDGE_LOOP( '', ( #1533, #1534, #1535, #1536 ) );
#703 = AXIS2_PLACEMENT_3D( '', #1537, #1538, #1539 );
#704 = EDGE_LOOP( '', ( #1540, #1541, #1542, #1543 ) );
#705 = AXIS2_PLACEMENT_3D( '', #1544, #1545, #1546 );
#706 = EDGE_LOOP( '', ( #1547, #1548, #1549, #1550 ) );
#707 = AXIS2_PLACEMENT_3D( '', #1551, #1552, #1553 );
#708 = EDGE_LOOP( '', ( #1554, #1555, #1556, #1557 ) );
#709 = AXIS2_PLACEMENT_3D( '', #1558, #1559, #1560 );
#710 = EDGE_LOOP( '', ( #1561, #1562, #1563, #1564 ) );
#711 = AXIS2_PLACEMENT_3D( '', #1565, #1566, #1567 );
#712 = EDGE_LOOP( '', ( #1568, #1569, #1570, #1571 ) );
#713 = AXIS2_PLACEMENT_3D( '', #1572, #1573, #1574 );
#714 = EDGE_LOOP( '', ( #1575, #1576, #1577, #1578 ) );
#715 = AXIS2_PLACEMENT_3D( '', #1579, #1580, #1581 );
#716 = EDGE_LOOP( '', ( #1582, #1583, #1584, #1585 ) );
#717 = AXIS2_PLACEMENT_3D( '', #1586, #1587, #1588 );
#718 = EDGE_LOOP( '', ( #1589, #1590, #1591, #1592 ) );
#719 = AXIS2_PLACEMENT_3D( '', #1593, #1594, #1595 );
#720 = EDGE_LOOP( '', ( #1596, #1597, #1598, #1599 ) );
#721 = AXIS2_PLACEMENT_3D( '', #1600, #1601, #1602 );
#722 = EDGE_LOOP( '', ( #1603, #1604, #1605, #1606 ) );
#723 = AXIS2_PLACEMENT_3D( '', #1607, #1608, #1609 );
#724 = EDGE_LOOP( '', ( #1610, #1611, #1612, #1613 ) );
#725 = AXIS2_PLACEMENT_3D( '', #1614, #1615, #1616 );
#726 = EDGE_LOOP( '', ( #1617, #1618, #1619, #1620 ) );
#727 = AXIS2_PLACEMENT_3D( '', #1621, #1622, #1623 );
#728 = EDGE_LOOP( '', ( #1624, #1625, #1626, #1627 ) );
#729 = AXIS2_PLACEMENT_3D( '', #1628, #1629, #1630 );
#730 = EDGE_LOOP( '', ( #1631, #1632, #1633, #1634 ) );
#731 = AXIS2_PLACEMENT_3D( '', #1635, #1636, #1637 );
#732 = EDGE_LOOP( '', ( #1638, #1639, #1640, #1641 ) );
#733 = AXIS2_PLACEMENT_3D( '', #1642, #1643, #1644 );
#734 = EDGE_LOOP( '', ( #1645, #1646, #1647, #1648 ) );
#735 = AXIS2_PLACEMENT_3D( '', #1649, #1650, #1651 );
#736 = EDGE_LOOP( '', ( #1652, #1653, #1654, #1655 ) );
#737 = AXIS2_PLACEMENT_3D( '', #1656, #1657, #1658 );
#738 = EDGE_LOOP( '', ( #1659, #1660, #1661, #1662 ) );
#739 = AXIS2_PLACEMENT_3D( '', #1663, #1664, #1665 );
#740 = EDGE_LOOP( '', ( #1666, #1667, #1668, #1669 ) );
#741 = AXIS2_PLACEMENT_3D( '', #1670, #1671, #1672 );
#742 = EDGE_LOOP( '', ( #1673, #1674, #1675, #1676 ) );
#743 = AXIS2_PLACEMENT_3D( '', #1677, #1678, #1679 );
#744 = EDGE_LOOP( '', ( #1680, #1681, #1682, #1683 ) );
#745 = AXIS2_PLACEMENT_3D( '', #1684, #1685, #1686 );
#746 = EDGE_LOOP( '', ( #1687, #1688, #1689, #1690 ) );
#747 = AXIS2_PLACEMENT_3D( '', #1691, #1692, #1693 );
#748 = EDGE_LOOP( '', ( #1694, #1695, #1696, #1697 ) );
#749 = AXIS2_PLACEMENT_3D( '', #1698, #1699, #1700 );
#750 = EDGE_LOOP( '', ( #1701, #1702, #1703, #1704 ) );
#751 = AXIS2_PLACEMENT_3D( '', #1705, #1706, #1707 );
#752 = ORIENTED_EDGE( '', *, *, #1708, .T. );
#753 = ORIENTED_EDGE( '', *, *, #1709, .F. );
#754 = CARTESIAN_POINT( '', ( 0.000000000000000, 0.00317500000000000, 0.000000000000000 ) );
#755 = DIRECTION( '', ( -0.000000000000000, 1.00000000000000, 0.000000000000000 ) );
#756 = DIRECTION( '', ( 0.000000000000000, 0.000000000000000, -1.00000000000000 ) );
#757 = ORIENTED_EDGE( '', *, *, #1710, .T. );
#758 = ORIENTED_EDGE( '', *, *, #1711, .T. );
#759 = ORIENTED_EDGE( '', *, *, #1712, .F. );
#760 = ORIENTED_EDGE( '', *, *, #1713, .F. );
#761 = CARTESIAN_POINT( '', ( 0.0552785176105437, 0.0254000000000000, -0.0395297018878474 ) );
#762 = DIRECTION( '', ( 0.000000000000000, 1.00000000000000, 0.000000000000000 ) );
#763 = DIRECTION( '', ( 0.000000000000000, 0.000000000000000, 1.00000000000000 ) );
#764 = ORIENTED_EDGE( '', *, *, #1714, .F. );
#765 = ORIENTED_EDGE( '', *, *, #1715, .T. );
#766 = CARTESIAN_POINT( '', ( 0.000000000000000, 0.00317500000000000, 0.000000000000000 ) );
#767 = DIRECTION( '', ( -0.000000000000000, 1.00000000000000, 0.000000000000000 ) );
#768 = DIRECTION( '', ( 0.000000000000000, 0.000000000000000, -1.00000000000000 ) );
#769 = ORIENTED_EDGE( '', *, *, #1715, .F. );
#770 = ORIENTED_EDGE( '', *, *, #1709, .T. );
#771 = ORIENTED_EDGE( '', *, *, #1716, .T. );
#772 = ORIENTED_EDGE( '', *, *, #1717, .T. );
#773 = ORIENTED_EDGE( '', *, *, #1718, .F. );
#774 = ORIENTED_EDGE( '', *, *, #1719, .F. );
#775 = ORIENTED_EDGE( '', *, *, #1720, .T. );
#776 = ORIENTED_EDGE( '', *, *, #1721, .T. );
#777 = ORIENTED_EDGE( '', *, *, #1722, .F. );
#778 = ORIENTED_EDGE( '', *, *, #1723, .F. );
#779 = ORIENTED_EDGE( '', *, *, #1724, .T. );
#780 = ORIENTED_EDGE( '', *, *, #1725, .T. );
#781 = ORIENTED_EDGE( '', *, *, #1726, .F. );
#782 = ORIENTED_EDGE( '', *, *, #1727, .F. );
#783 = ORIENTED_EDGE( '', *, *, #1728, .T. );
#784 = ORIENTED_EDGE( '', *, *, #1729, .T. );
#785 = ORIENTED_EDGE( '', *, *, #1730, .F. );
#786 = ORIENTED_EDGE( '', *, *, #1731, .F. );
#787 = ORIENTED_EDGE( '', *, *, #1732, .T. );
#788 = ORIENTED_EDGE( '', *, *, #1733, .T. );
#789 = ORIENTED_EDGE( '', *, *, #1734, .F. );
#790 = ORIENTED_EDGE( '', *, *, #1735, .F. );
#791 = ORIENTED_EDGE( '', *, *, #1736, .T. );
#792 = ORIENTED_EDGE( '', *, *, #1737, .T. );
#793 = ORIENTED_EDGE( '', *, *, #1738, .F. );
#794 = ORIENTED_EDGE( '', *, *, #1739, .F. );
#795 = ORIENTED_EDGE( '', *, *, #1740, .T. );
#796 = ORIENTED_EDGE( '', *, *, #1741, .T. );
#797 = ORIENTED_EDGE( '', *, *, #1742, .F. );
#798 = ORIENTED_EDGE( '', *, *, #1743, .F. );
#799 = ORIENTED_EDGE( '', *, *, #1744, .T. );
#800 = ORIENTED_EDGE( '', *, *, #1745, .T. );
#801 = ORIENTED_EDGE( '', *, *, #1746, .F. );
#802 = ORIENTED_EDGE( '', *, *, #1747, .F. );
#803 = ORIENTED_EDGE( '', *, *, #1748, .T. );
#804 = ORIENTED_EDGE( '', *, *, #1749, .T. );
#805 = ORIENTED_EDGE( '', *, *, #1750, .F. );
#806 = ORIENTED_EDGE( '', *, *, #1751, .F. );
#807 = ORIENTED_EDGE( '', *, *, #1752, .T. );
#808 = ORIENTED_EDGE( '', *, *, #1753, .T. );
#809 = ORIENTED_EDGE( '', *, *, #1754, .F. );
#810 = ORIENTED_EDGE( '', *, *, #1755, .F. );
#811 = ORIENTED_EDGE( '', *, *, #1756, .T. );
#812 = ORIENTED_EDGE( '', *, *, #1757, .T. );
#813 = ORIENTED_EDGE( '', *, *, #1758, .F. );
#814 = ORIENTED_EDGE( '', *, *, #1759, .F. );
#815 = ORIENTED_EDGE( '', *, *, #1760, .T. );
#816 = ORIENTED_EDGE( '', *, *, #1761, .T. );
#817 = ORIENTED_EDGE( '', *, *, #1762, .F. );
#818 = ORIENTED_EDGE( '', *, *, #1763, .F. );
#819 = CARTESIAN_POINT( '', ( 0.000000000000000, 0.000000000000000, 0.000000000000000 ) );
#820 = DIRECTION( '', ( 0.000000000000000, 1.00000000000000, 0.000000000000000 ) );
#821 = DIRECTION( '', ( 0.000000000000000, 0.000000000000000, 1.00000000000000 ) );
#822 = ORIENTED_EDGE( '', *, *, #1714, .T. );
#823 = ORIENTED_EDGE( '', *, *, #1708, .F. );
#824 = ORIENTED_EDGE( '', *, *, #1764, .F. );
#825 = ORIENTED_EDGE( '', *, *, #1765, .F. );
#826 = ORIENTED_EDGE( '', *, *, #1766, .T. );
#827 = ORIENTED_EDGE( '', *, *, #1767, .T. );
#828 = ORIENTED_EDGE( '', *, *, #1768, .F. );
#829 = ORIENTED_EDGE( '', *, *, #1769, .F. );
#830 = ORIENTED_EDGE( '', *, *, #1770, .T. );
#831 = ORIENTED_EDGE( '', *, *, #1771, .T. );
#832 = ORIENTED_EDGE( '', *, *, #1772, .F. );
#833 = ORIENTED_EDGE( '', *, *, #1773, .F. );
#834 = ORIENTED_EDGE( '', *, *, #1774, .T. );
#835 = ORIENTED_EDGE( '', *, *, #1775, .T. );
#836 = ORIENTED_EDGE( '', *, *, #1776, .F. );
#837 = ORIENTED_EDGE( '', *, *, #1777, .F. );
#838 = ORIENTED_EDGE( '', *, *, #1778, .T. );
#839 = ORIENTED_EDGE( '', *, *, #1779, .T. );
#840 = ORIENTED_EDGE( '', *, *, #1780, .F. );
#841 = ORIENTED_EDGE( '', *, *, #1781, .F. );
#842 = ORIENTED_EDGE( '', *, *, #1782, .T. );
#843 = ORIENTED_EDGE( '', *, *, #1783, .T. );
#844 = ORIENTED_EDGE( '', *, *, #1784, .F. );
#845 = ORIENTED_EDGE( '', *, *, #1785, .F. );
#846 = ORIENTED_EDGE( '', *, *, #1786, .T. );
#847 = ORIENTED_EDGE( '', *, *, #1787, .T. );
#848 = ORIENTED_EDGE( '', *, *, #1788, .F. );
#849 = ORIENTED_EDGE( '', *, *, #1789, .F. );
#850 = ORIENTED_EDGE( '', *, *, #1790, .T. );
#851 = ORIENTED_EDGE( '', *, *, #1791, .T. );
#852 = ORIENTED_EDGE( '', *, *, #1792, .F. );
#853 = ORIENTED_EDGE( '', *, *, #1793, .F. );
#854 = ORIENTED_EDGE( '', *, *, #1794, .T. );
#855 = ORIENTED_EDGE( '', *, *, #1795, .T. );
#856 = ORIENTED_EDGE( '', *, *, #1796, .F. );
#857 = ORIENTED_EDGE( '', *, *, #1797, .F. );
#858 = ORIENTED_EDGE( '', *, *, #1798, .T. );
#859 = ORIENTED_EDGE( '', *, *, #1799, .T. );
#860 = ORIENTED_EDGE( '', *, *, #1800, .F. );
#861 = ORIENTED_EDGE( '', *, *, #1801, .F. );
#862 = ORIENTED_EDGE( '', *, *, #1802, .T. );
#863 = ORIENTED_EDGE( '', *, *, #1803, .T. );
#864 = ORIENTED_EDGE( '', *, *, #1804, .F. );
#865 = ORIENTED_EDGE( '', *, *, #1805, .F. );
#866 = ORIENTED_EDGE( '', *, *, #1806, .T. );
#867 = ORIENTED_EDGE( '', *, *, #1807, .T. );
#868 = ORIENTED_EDGE( '', *, *, #1808, .F. );
#869 = ORIENTED_EDGE( '', *, *, #1809, .F. );
#870 = ORIENTED_EDGE( '', *, *, #1810, .T. );
#871 = ORIENTED_EDGE( '', *, *, #1811, .T. );
#872 = CARTESIAN_POINT( '', ( 0.000000000000000, 0.00317500000000000, 0.000000000000000 ) );
#873 = DIRECTION( '', ( 0.000000000000000, 1.00000000000000, 0.000000000000000 ) );
#874 = DIRECTION( '', ( 0.000000000000000, 0.000000000000000, 1.00000000000000 ) );
#875 = ORIENTED_EDGE( '', *, *, #1812, .F. );
#876 = ORIENTED_EDGE( '', *, *, #1716, .F. );
#877 = ORIENTED_EDGE( '', *, *, #1813, .T. );
#878 = ORIENTED_EDGE( '', *, *, #1814, .T. );
#879 = CARTESIAN_POINT( '', ( 0.0552785176105437, 0.0254000000000000, -0.0395297018878474 ) );
#880 = DIRECTION( '', ( -0.000000000000000, 1.00000000000000, 0.000000000000000 ) );
#881 = DIRECTION( '', ( 0.000000000000000, 0.000000000000000, -1.00000000000000 ) );
#882 = ORIENTED_EDGE( '', *, *, #1814, .F. );
#883 = ORIENTED_EDGE( '', *, *, #1815, .T. );
#884 = ORIENTED_EDGE( '', *, *, #1816, .T. );
#885 = ORIENTED_EDGE( '', *, *, #1817, .F. );
#886 = CARTESIAN_POINT( '', ( 0.0552785176105437, -0.0254000000000000, -0.0395297018878474 ) );
#887 = DIRECTION( '', ( 0.000000000000000, 1.00000000000000, 0.000000000000000 ) );
#888 = DIRECTION( '', ( 0.000000000000000, 0.000000000000000, 1.00000000000000 ) );
#889 = ORIENTED_EDGE( '', *, *, #1718, .T. );
#890 = ORIENTED_EDGE( '', *, *, #1818, .T. );
#891 = ORIENTED_EDGE( '', *, *, #1816, .F. );
#892 = ORIENTED_EDGE( '', *, *, #1819, .F. );
#893 = CARTESIAN_POINT( '', ( 0.0552785176105437, 0.0254000000000000, -0.0395297018878474 ) );
#894 = DIRECTION( '', ( -0.000000000000000, 1.00000000000000, 0.000000000000000 ) );
#895 = DIRECTION( '', ( 0.000000000000000, 0.000000000000000, -1.00000000000000 ) );
#896 = ORIENTED_EDGE( '', *, *, #1765, .T. );
#897 = ORIENTED_EDGE( '', *, *, #1820, .F. );
#898 = ORIENTED_EDGE( '', *, *, #1710, .F. );
#899 = ORIENTED_EDGE( '', *, *, #1821, .T. );
#900 = CARTESIAN_POINT( '', ( 0.0552785176105437, 0.0254000000000000, -0.0395297018878474 ) );
#901 = DIRECTION( '', ( -0.000000000000000, 1.00000000000000, 0.000000000000000 ) );
#902 = DIRECTION( '', ( 0.000000000000000, 0.000000000000000, -1.00000000000000 ) );
#903 = ORIENTED_EDGE( '', *, *, #1764, .T. );
#904 = ORIENTED_EDGE( '', *, *, #1822, .F. );
#905 = ORIENTED_EDGE( '', *, *, #1711, .F. );
#906 = ORIENTED_EDGE( '', *, *, #1820, .T. );
#907 = CARTESIAN_POINT( '', ( 0.0870167424069888, 0.0254000000000000, -0.0400108760533006 ) );
#908 = DIRECTION( '', ( -0.340217745663803, 0.000000000000000, 0.940346683694604 ) );
#909 = DIRECTION( '', ( 0.940346683694604, 0.000000000000000, 0.340217745663803 ) );
#910 = ORIENTED_EDGE( '', *, *, #1823, .T. );
#911 = ORIENTED_EDGE( '', *, *, #1811, .F. );
#912 = ORIENTED_EDGE( '', *, *, #1824, .F. );
#913 = ORIENTED_EDGE( '', *, *, #1825, .T. );
#914 = CARTESIAN_POINT( '', ( 0.0676374514782000, 0.0254000000000000, -0.00659446723362958 ) );
#915 = DIRECTION( '', ( -0.000000000000000, 1.00000000000000, -0.000000000000000 ) );
#916 = DIRECTION( '', ( 0.500000000000001, 0.000000000000000, -0.866025403784438 ) );
#917 = ORIENTED_EDGE( '', *, *, #1824, .T. );
#918 = ORIENTED_EDGE( '', *, *, #1810, .F. );
#919 = ORIENTED_EDGE( '', *, *, #1826, .F. );
#920 = ORIENTED_EDGE( '', *, *, #1827, .T. );
#921 = CARTESIAN_POINT( '', ( 0.0544467654689969, 0.0254000000000000, 0.0222768376280110 ) );
#922 = DIRECTION( '', ( -0.998912606910943, 0.000000000000000, -0.0466219235380044 ) );
#923 = DIRECTION( '', ( -0.0466219235380044, 0.000000000000000, 0.998912606910943 ) );
#924 = ORIENTED_EDGE( '', *, *, #1808, .T. );
#925 = ORIENTED_EDGE( '', *, *, #1823, .F. );
#926 = ORIENTED_EDGE( '', *, *, #1828, .F. );
#927 = ORIENTED_EDGE( '', *, *, #1829, .T. );
#928 = CARTESIAN_POINT( '', ( 0.0953641475056693, 0.0254000000000000, 0.00885793611366567 ) );
#929 = DIRECTION( '', ( -0.764810552410429, 0.000000000000000, 0.644255243612076 ) );
#930 = DIRECTION( '', ( 0.644255243612076, 0.000000000000000, 0.764810552410429 ) );
#931 = ORIENTED_EDGE( '', *, *, #1762, .T. );
#932 = ORIENTED_EDGE( '', *, *, #1830, .T. );
#933 = ORIENTED_EDGE( '', *, *, #1831, .F. );
#934 = ORIENTED_EDGE( '', *, *, #1832, .F. );
#935 = CARTESIAN_POINT( '', ( 0.0676374514782000, 0.0254000000000000, -0.00659446723362958 ) );
#936 = DIRECTION( '', ( -0.000000000000000, 1.00000000000000, -0.000000000000000 ) );
#937 = DIRECTION( '', ( 0.500000000000001, 0.000000000000000, -0.866025403784438 ) );
#938 = ORIENTED_EDGE( '', *, *, #1833, .F. );
#939 = ORIENTED_EDGE( '', *, *, #1760, .F. );
#940 = ORIENTED_EDGE( '', *, *, #1834, .T. );
#941 = ORIENTED_EDGE( '', *, *, #1835, .T. );
#942 = CARTESIAN_POINT( '', ( 0.0676374514782000, 0.0254000000000000, -0.00659446723362958 ) );
#943 = DIRECTION( '', ( -0.000000000000000, 1.00000000000000, -0.000000000000000 ) );
#944 = DIRECTION( '', ( 0.500000000000001, 0.000000000000000, -0.866025403784438 ) );
#945 = ORIENTED_EDGE( '', *, *, #1830, .F. );
#946 = ORIENTED_EDGE( '', *, *, #1761, .F. );
#947 = ORIENTED_EDGE( '', *, *, #1833, .T. );
#948 = ORIENTED_EDGE( '', *, *, #1836, .T. );
#949 = CARTESIAN_POINT( '', ( 0.0953641475056693, 0.0254000000000000, 0.00885793611366567 ) );
#950 = DIRECTION( '', ( -0.764810552410429, 0.000000000000000, 0.644255243612076 ) );
#951 = DIRECTION( '', ( 0.644255243612076, 0.000000000000000, 0.764810552410429 ) );
#952 = ORIENTED_EDGE( '', *, *, #1835, .F. );
#953 = ORIENTED_EDGE( '', *, *, #1837, .T. );
#954 = ORIENTED_EDGE( '', *, *, #1831, .T. );
#955 = ORIENTED_EDGE( '', *, *, #1836, .F. );
#956 = CARTESIAN_POINT( '', ( 0.0676374514782000, -0.0254000000000000, -0.00659446723362958 ) );
#957 = DIRECTION( '', ( 0.000000000000000, 1.00000000000000, 0.000000000000000 ) );
#958 = DIRECTION( '', ( -0.500000000000001, 0.000000000000000, 0.866025403784438 ) );
#959 = ORIENTED_EDGE( '', *, *, #1838, .T. );
#960 = ORIENTED_EDGE( '', *, *, #1828, .T. );
#961 = ORIENTED_EDGE( '', *, *, #1825, .F. );
#962 = ORIENTED_EDGE( '', *, *, #1827, .F. );
#963 = CARTESIAN_POINT( '', ( 0.0676374514782000, 0.0254000000000000, -0.00659446723362958 ) );
#964 = DIRECTION( '', ( 0.000000000000000, 1.00000000000000, 0.000000000000000 ) );
#965 = DIRECTION( '', ( -0.500000000000001, 0.000000000000000, 0.866025403784438 ) );
#966 = ORIENTED_EDGE( '', *, *, #1809, .T. );
#967 = ORIENTED_EDGE( '', *, *, #1829, .F. );
#968 = ORIENTED_EDGE( '', *, *, #1838, .F. );
#969 = ORIENTED_EDGE( '', *, *, #1826, .T. );
#970 = CARTESIAN_POINT( '', ( 0.0676374514782000, 0.0254000000000000, -0.00659446723362958 ) );
#971 = DIRECTION( '', ( -0.000000000000000, 1.00000000000000, -0.000000000000000 ) );
#972 = DIRECTION( '', ( 0.500000000000001, 0.000000000000000, -0.866025403784438 ) );
#973 = ORIENTED_EDGE( '', *, *, #1839, .F. );
#974 = ORIENTED_EDGE( '', *, *, #1840, .T. );
#975 = ORIENTED_EDGE( '', *, *, #1841, .T. );
#976 = ORIENTED_EDGE( '', *, *, #1842, .F. );
#977 = CARTESIAN_POINT( '', ( 0.0618729848441734, -0.0254000000000000, 0.0281077495903527 ) );
#978 = DIRECTION( '', ( 0.000000000000000, 1.00000000000000, 0.000000000000000 ) );
#979 = DIRECTION( '', ( -0.866025403784439, 0.000000000000000, 0.499999999999999 ) );
#980 = ORIENTED_EDGE( '', *, *, #1843, .F. );
#981 = ORIENTED_EDGE( '', *, *, #1756, .F. );
#982 = ORIENTED_EDGE( '', *, *, #1844, .T. );
#983 = ORIENTED_EDGE( '', *, *, #1839, .T. );
#984 = CARTESIAN_POINT( '', ( 0.0618729848441734, 0.0254000000000000, 0.0281077495903527 ) );
#985 = DIRECTION( '', ( -0.000000000000000, 1.00000000000000, -0.000000000000000 ) );
#986 = DIRECTION( '', ( 0.866025403784439, 0.000000000000000, -0.499999999999999 ) );
#987 = ORIENTED_EDGE( '', *, *, #1845, .T. );
#988 = ORIENTED_EDGE( '', *, *, #1806, .F. );
#989 = ORIENTED_EDGE( '', *, *, #1846, .F. );
#990 = ORIENTED_EDGE( '', *, *, #1847, .T. );
#991 = CARTESIAN_POINT( '', ( 0.0360138632360392, 0.0254000000000000, 0.0465156900363371 ) );
#992 = DIRECTION( '', ( -0.841772731976414, 0.000000000000000, -0.539832073612679 ) );
#993 = DIRECTION( '', ( -0.539832073612679, 0.000000000000000, 0.841772731976414 ) );
#994 = ORIENTED_EDGE( '', *, *, #1848, .T. );
#995 = ORIENTED_EDGE( '', *, *, #1807, .F. );
#996 = ORIENTED_EDGE( '', *, *, #1845, .F. );
#997 = ORIENTED_EDGE( '', *, *, #1849, .T. );
#998 = CARTESIAN_POINT( '', ( 0.0618729848441734, 0.0254000000000000, 0.0281077495903527 ) );
#999 = DIRECTION( '', ( -0.000000000000000, 1.00000000000000, -0.000000000000000 ) );
#1000 = DIRECTION( '', ( 0.866025403784439, 0.000000000000000, -0.499999999999999 ) );
#1001 = ORIENTED_EDGE( '', *, *, #1804, .T. );
#1002 = ORIENTED_EDGE( '', *, *, #1848, .F. );
#1003 = ORIENTED_EDGE( '', *, *, #1850, .F. );
#1004 = ORIENTED_EDGE( '', *, *, #1851, .T. );
#1005 = CARTESIAN_POINT( '', ( 0.0781588062933232, 0.0254000000000000, 0.0553532714523687 ) );
#1006 = DIRECTION( '', ( -0.984472989275879, 0.000000000000000, 0.175536131284175 ) );
#1007 = DIRECTION( '', ( 0.175536131284175, 0.000000000000000, 0.984472989275879 ) );
#1008 = ORIENTED_EDGE( '', *, *, #1805, .T. );
#1009 = ORIENTED_EDGE( '', *, *, #1851, .F. );
#1010 = ORIENTED_EDGE( '', *, *, #1852, .F. );
#1011 = ORIENTED_EDGE( '', *, *, #1846, .T. );
#1012 = CARTESIAN_POINT( '', ( 0.0618729848441734, 0.0254000000000000, 0.0281077495903527 ) );
#1013 = DIRECTION( '', ( -0.000000000000000, 1.00000000000000, -0.000000000000000 ) );
#1014 = DIRECTION( '', ( 0.866025403784439, 0.000000000000000, -0.499999999999999 ) );
#1015 = ORIENTED_EDGE( '', *, *, #1853, .T. );
#1016 = ORIENTED_EDGE( '', *, *, #1854, .T. );
#1017 = ORIENTED_EDGE( '', *, *, #1855, .F. );
#1018 = ORIENTED_EDGE( '', *, *, #1856, .F. );
#1019 = CARTESIAN_POINT( '', ( 0.0395297018878473, 0.0254000000000000, 0.0552785176105438 ) );
#1020 = DIRECTION( '', ( 0.000000000000000, 1.00000000000000, 0.000000000000000 ) );
#1021 = DIRECTION( '', ( -1.00000000000000, 0.000000000000000, -8.32667268468867E-016 ) );
#1022 = ORIENTED_EDGE( '', *, *, #1857, .F. );
#1023 = ORIENTED_EDGE( '', *, *, #1858, .T. );
#1024 = ORIENTED_EDGE( '', *, *, #1859, .T. );
#1025 = ORIENTED_EDGE( '', *, *, #1860, .F. );
#1026 = CARTESIAN_POINT( '', ( 0.0395297018878473, -0.0254000000000000, 0.0552785176105438 ) );
#1027 = DIRECTION( '', ( 0.000000000000000, 1.00000000000000, 0.000000000000000 ) );
#1028 = DIRECTION( '', ( -1.00000000000000, 0.000000000000000, -8.32667268468867E-016 ) );
#1029 = ORIENTED_EDGE( '', *, *, #1861, .T. );
#1030 = ORIENTED_EDGE( '', *, *, #1802, .F. );
#1031 = ORIENTED_EDGE( '', *, *, #1862, .F. );
#1032 = ORIENTED_EDGE( '', *, *, #1856, .T. );
#1033 = CARTESIAN_POINT( '', ( 0.00793107543265984, 0.0254000000000000, 0.0582907008640502 ) );
#1034 = DIRECTION( '', ( -0.459080533298264, 0.000000000000000, -0.888394655514418 ) );
#1035 = DIRECTION( '', ( -0.888394655514418, 0.000000000000000, 0.459080533298264 ) );
#1036 = ORIENTED_EDGE( '', *, *, #1863, .T. );
#1037 = ORIENTED_EDGE( '', *, *, #1803, .F. );
#1038 = ORIENTED_EDGE( '', *, *, #1861, .F. );
#1039 = ORIENTED_EDGE( '', *, *, #1855, .T. );
#1040 = CARTESIAN_POINT( '', ( 0.0395297018878473, 0.0254000000000000, 0.0552785176105438 ) );
#1041 = DIRECTION( '', ( -0.000000000000000, 1.00000000000000, -0.000000000000000 ) );
#1042 = DIRECTION( '', ( 1.00000000000000, 0.000000000000000, 8.32667268468867E-016 ) );
#1043 = ORIENTED_EDGE( '', *, *, #1800, .T. );
#1044 = ORIENTED_EDGE( '', *, *, #1863, .F. );
#1045 = ORIENTED_EDGE( '', *, *, #1854, .F. );
#1046 = ORIENTED_EDGE( '', *, *, #1864, .T. );
#1047 = CARTESIAN_POINT( '', ( 0.0400108760533006, 0.0254000000000000, 0.0870167424069888 ) );
#1048 = DIRECTION( '', ( -0.940346683694604, 0.000000000000000, -0.340217745663803 ) );
#1049 = DIRECTION( '', ( -0.340217745663803, 0.000000000000000, 0.940346683694604 ) );
#1050 = ORIENTED_EDGE( '', *, *, #1801, .T. );
#1051 = ORIENTED_EDGE( '', *, *, #1864, .F. );
#1052 = ORIENTED_EDGE( '', *, *, #1853, .F. );
#1053 = ORIENTED_EDGE( '', *, *, #1862, .T. );
#1054 = CARTESIAN_POINT( '', ( 0.0395297018878473, 0.0254000000000000, 0.0552785176105438 ) );
#1055 = DIRECTION( '', ( -0.000000000000000, 1.00000000000000, -0.000000000000000 ) );
#1056 = DIRECTION( '', ( 1.00000000000000, 0.000000000000000, 8.32667268468867E-016 ) );
#1057 = ORIENTED_EDGE( '', *, *, #1865, .T. );
#1058 = ORIENTED_EDGE( '', *, *, #1866, .T. );
#1059 = ORIENTED_EDGE( '', *, *, #1867, .F. );
#1060 = ORIENTED_EDGE( '', *, *, #1868, .F. );
#1061 = CARTESIAN_POINT( '', ( 0.00659446723362960, 0.0254000000000000, 0.0676374514782000 ) );
#1062 = DIRECTION( '', ( 0.000000000000000, 1.00000000000000, 0.000000000000000 ) );
#1063 = DIRECTION( '', ( -0.866025403784438, 0.000000000000000, -0.500000000000001 ) );
#1064 = ORIENTED_EDGE( '', *, *, #1869, .F. );
#1065 = ORIENTED_EDGE( '', *, *, #1870, .T. );
#1066 = ORIENTED_EDGE( '', *, *, #1871, .T. );
#1067 = ORIENTED_EDGE( '', *, *, #1872, .F. );
#1068 = CARTESIAN_POINT( '', ( 0.00659446723362960, -0.0254000000000000, 0.0676374514782000 ) );
#1069 = DIRECTION( '', ( 0.000000000000000, 1.00000000000000, 0.000000000000000 ) );
#1070 = DIRECTION( '', ( -0.866025403784438, 0.000000000000000, -0.500000000000001 ) );
#1071 = ORIENTED_EDGE( '', *, *, #1873, .T. );
#1072 = ORIENTED_EDGE( '', *, *, #1798, .F. );
#1073 = ORIENTED_EDGE( '', *, *, #1874, .F. );
#1074 = ORIENTED_EDGE( '', *, *, #1868, .T. );
#1075 = CARTESIAN_POINT( '', ( -0.0222768376280110, 0.0254000000000000, 0.0544467654689969 ) );
#1076 = DIRECTION( '', ( 0.0466219235380042, 0.000000000000000, -0.998912606910943 ) );
#1077 = DIRECTION( '', ( -0.998912606910943, 0.000000000000000, -0.0466219235380042 ) );
#1078 = ORIENTED_EDGE( '', *, *, #1875, .T. );
#1079 = ORIENTED_EDGE( '', *, *, #1799, .F. );
#1080 = ORIENTED_EDGE( '', *, *, #1873, .F. );
#1081 = ORIENTED_EDGE( '', *, *, #1867, .T. );
#1082 = CARTESIAN_POINT( '', ( 0.00659446723362960, 0.0254000000000000, 0.0676374514782000 ) );
#1083 = DIRECTION( '', ( -0.000000000000000, 1.00000000000000, -0.000000000000000 ) );
#1084 = DIRECTION( '', ( 0.866025403784438, 0.000000000000000, 0.500000000000001 ) );
#1085 = ORIENTED_EDGE( '', *, *, #1796, .T. );
#1086 = ORIENTED_EDGE( '', *, *, #1875, .F. );
#1087 = ORIENTED_EDGE( '', *, *, #1866, .F. );
#1088 = ORIENTED_EDGE( '', *, *, #1876, .T. );
#1089 = CARTESIAN_POINT( '', ( -0.00885793611366565, 0.0254000000000000, 0.0953641475056693 ) );
#1090 = DIRECTION( '', ( -0.644255243612076, 0.000000000000000, -0.764810552410429 ) );
#1091 = DIRECTION( '', ( -0.764810552410429, 0.000000000000000, 0.644255243612076 ) );
#1092 = ORIENTED_EDGE( '', *, *, #1797, .T. );
#1093 = ORIENTED_EDGE( '', *, *, #1876, .F. );
#1094 = ORIENTED_EDGE( '', *, *, #1865, .F. );
#1095 = ORIENTED_EDGE( '', *, *, #1874, .T. );
#1096 = CARTESIAN_POINT( '', ( 0.00659446723362960, 0.0254000000000000, 0.0676374514782000 ) );
#1097 = DIRECTION( '', ( -0.000000000000000, 1.00000000000000, -0.000000000000000 ) );
#1098 = DIRECTION( '', ( 0.866025403784438, 0.000000000000000, 0.500000000000001 ) );
#1099 = ORIENTED_EDGE( '', *, *, #1877, .T. );
#1100 = ORIENTED_EDGE( '', *, *, #1878, .T. );
#1101 = ORIENTED_EDGE( '', *, *, #1879, .F. );
#1102 = ORIENTED_EDGE( '', *, *, #1880, .F. );
#1103 = CARTESIAN_POINT( '', ( -0.0281077495903527, 0.0254000000000000, 0.0618729848441734 ) );
#1104 = DIRECTION( '', ( 0.000000000000000, 1.00000000000000, 0.000000000000000 ) );
#1105 = DIRECTION( '', ( -0.500000000000000, 0.000000000000000, -0.866025403784439 ) );
#1106 = ORIENTED_EDGE( '', *, *, #1881, .F. );
#1107 = ORIENTED_EDGE( '', *, *, #1882, .T. );
#1108 = ORIENTED_EDGE( '', *, *, #1883, .T. );
#1109 = ORIENTED_EDGE( '', *, *, #1884, .F. );
#1110 = CARTESIAN_POINT( '', ( -0.0281077495903527, -0.0254000000000000, 0.0618729848441734 ) );
#1111 = DIRECTION( '', ( 0.000000000000000, 1.00000000000000, 0.000000000000000 ) );
#1112 = DIRECTION( '', ( -0.500000000000000, 0.000000000000000, -0.866025403784439 ) );
#1113 = ORIENTED_EDGE( '', *, *, #1885, .T. );
#1114 = ORIENTED_EDGE( '', *, *, #1794, .F. );
#1115 = ORIENTED_EDGE( '', *, *, #1886, .F. );
#1116 = ORIENTED_EDGE( '', *, *, #1880, .T. );
#1117 = CARTESIAN_POINT( '', ( -0.0465156900363371, 0.0254000000000000, 0.0360138632360392 ) );
#1118 = DIRECTION( '', ( 0.539832073612679, 0.000000000000000, -0.841772731976414 ) );
#1119 = DIRECTION( '', ( -0.841772731976414, 0.000000000000000, -0.539832073612679 ) );
#1120 = ORIENTED_EDGE( '', *, *, #1887, .T. );
#1121 = ORIENTED_EDGE( '', *, *, #1795, .F. );
#1122 = ORIENTED_EDGE( '', *, *, #1885, .F. );
#1123 = ORIENTED_EDGE( '', *, *, #1879, .T. );
#1124 = CARTESIAN_POINT( '', ( -0.0281077495903527, 0.0254000000000000, 0.0618729848441734 ) );
#1125 = DIRECTION( '', ( -0.000000000000000, 1.00000000000000, -0.000000000000000 ) );
#1126 = DIRECTION( '', ( 0.499999999999999, 0.000000000000000, 0.866025403784439 ) );
#1127 = ORIENTED_EDGE( '', *, *, #1792, .T. );
#1128 = ORIENTED_EDGE( '', *, *, #1887, .F. );
#1129 = ORIENTED_EDGE( '', *, *, #1878, .F. );
#1130 = ORIENTED_EDGE( '', *, *, #1888, .T. );
#1131 = CARTESIAN_POINT( '', ( -0.0553532714523687, 0.0254000000000000, 0.0781588062933232 ) );
#1132 = DIRECTION( '', ( -0.175536131284176, 0.000000000000000, -0.984472989275879 ) );
#1133 = DIRECTION( '', ( -0.984472989275879, 0.000000000000000, 0.175536131284176 ) );
#1134 = ORIENTED_EDGE( '', *, *, #1793, .T. );
#1135 = ORIENTED_EDGE( '', *, *, #1888, .F. );
#1136 = ORIENTED_EDGE( '', *, *, #1877, .F. );
#1137 = ORIENTED_EDGE( '', *, *, #1886, .T. );
#1138 = CARTESIAN_POINT( '', ( -0.0281077495903527, 0.0254000000000000, 0.0618729848441734 ) );
#1139 = DIRECTION( '', ( -0.000000000000000, 1.00000000000000, -0.000000000000000 ) );
#1140 = DIRECTION( '', ( 0.499999999999999, 0.000000000000000, 0.866025403784439 ) );
#1141 = ORIENTED_EDGE( '', *, *, #1889, .T. );
#1142 = ORIENTED_EDGE( '', *, *, #1890, .T. );
#1143 = ORIENTED_EDGE( '', *, *, #1891, .F. );
#1144 = ORIENTED_EDGE( '', *, *, #1892, .F. );
#1145 = CARTESIAN_POINT( '', ( -0.0552785176105437, 0.0254000000000000, 0.0395297018878474 ) );
#1146 = DIRECTION( '', ( 0.000000000000000, 1.00000000000000, 0.000000000000000 ) );
#1147 = DIRECTION( '', ( 5.55111512312578E-016, 0.000000000000000, -1.00000000000000 ) );
#1148 = ORIENTED_EDGE( '', *, *, #1893, .F. );
#1149 = ORIENTED_EDGE( '', *, *, #1894, .T. );
#1150 = ORIENTED_EDGE( '', *, *, #1895, .T. );
#1151 = ORIENTED_EDGE( '', *, *, #1896, .F. );
#1152 = CARTESIAN_POINT( '', ( -0.0552785176105437, -0.0254000000000000, 0.0395297018878474 ) );
#1153 = DIRECTION( '', ( 0.000000000000000, 1.00000000000000, 0.000000000000000 ) );
#1154 = DIRECTION( '', ( 5.55111512312578E-016, 0.000000000000000, -1.00000000000000 ) );
#1155 = ORIENTED_EDGE( '', *, *, #1897, .T. );
#1156 = ORIENTED_EDGE( '', *, *, #1790, .F. );
#1157 = ORIENTED_EDGE( '', *, *, #1898, .F. );
#1158 = ORIENTED_EDGE( '', *, *, #1892, .T. );
#1159 = CARTESIAN_POINT( '', ( -0.0582907008640502, 0.0254000000000000, 0.00793107543265986 ) );
#1160 = DIRECTION( '', ( 0.888394655514418, 0.000000000000000, -0.459080533298265 ) );
#1161 = DIRECTION( '', ( -0.459080533298265, 0.000000000000000, -0.888394655514418 ) );
#1162 = ORIENTED_EDGE( '', *, *, #1899, .T. );
#1163 = ORIENTED_EDGE( '', *, *, #1791, .F. );
#1164 = ORIENTED_EDGE( '', *, *, #1897, .F. );
#1165 = ORIENTED_EDGE( '', *, *, #1891, .T. );
#1166 = CARTESIAN_POINT( '', ( -0.0552785176105437, 0.0254000000000000, 0.0395297018878474 ) );
#1167 = DIRECTION( '', ( -0.000000000000000, 1.00000000000000, -0.000000000000000 ) );
#1168 = DIRECTION( '', ( -5.55111512312578E-016, 0.000000000000000, 1.00000000000000 ) );
#1169 = ORIENTED_EDGE( '', *, *, #1788, .T. );
#1170 = ORIENTED_EDGE( '', *, *, #1899, .F. );
#1171 = ORIENTED_EDGE( '', *, *, #1890, .F. );
#1172 = ORIENTED_EDGE( '', *, *, #1900, .T. );
#1173 = CARTESIAN_POINT( '', ( -0.0870167424069888, 0.0254000000000000, 0.0400108760533006 ) );
#1174 = DIRECTION( '', ( 0.340217745663803, 0.000000000000000, -0.940346683694604 ) );
#1175 = DIRECTION( '', ( -0.940346683694604, 0.000000000000000, -0.340217745663803 ) );
#1176 = ORIENTED_EDGE( '', *, *, #1789, .T. );
#1177 = ORIENTED_EDGE( '', *, *, #1900, .F. );
#1178 = ORIENTED_EDGE( '', *, *, #1889, .F. );
#1179 = ORIENTED_EDGE( '', *, *, #1898, .T. );
#1180 = CARTESIAN_POINT( '', ( -0.0552785176105437, 0.0254000000000000, 0.0395297018878474 ) );
#1181 = DIRECTION( '', ( -0.000000000000000, 1.00000000000000, -0.000000000000000 ) );
#1182 = DIRECTION( '', ( -5.55111512312578E-016, 0.000000000000000, 1.00000000000000 ) );
#1183 = ORIENTED_EDGE( '', *, *, #1901, .T. );
#1184 = ORIENTED_EDGE( '', *, *, #1902, .T. );
#1185 = ORIENTED_EDGE( '', *, *, #1903, .F. );
#1186 = ORIENTED_EDGE( '', *, *, #1904, .F. );
#1187 = CARTESIAN_POINT( '', ( -0.0676374514782000, 0.0254000000000000, 0.00659446723362962 ) );
#1188 = DIRECTION( '', ( 0.000000000000000, 1.00000000000000, 0.000000000000000 ) );
#1189 = DIRECTION( '', ( 0.500000000000000, 0.000000000000000, -0.866025403784438 ) );
#1190 = ORIENTED_EDGE( '', *, *, #1905, .F. );
#1191 = ORIENTED_EDGE( '', *, *, #1906, .T. );
#1192 = ORIENTED_EDGE( '', *, *, #1907, .T. );
#1193 = ORIENTED_EDGE( '', *, *, #1908, .F. );
#1194 = CARTESIAN_POINT( '', ( -0.0676374514782000, -0.0254000000000000, 0.00659446723362962 ) );
#1195 = DIRECTION( '', ( 0.000000000000000, 1.00000000000000, 0.000000000000000 ) );
#1196 = DIRECTION( '', ( 0.500000000000000, 0.000000000000000, -0.866025403784438 ) );
#1197 = ORIENTED_EDGE( '', *, *, #1909, .T. );
#1198 = ORIENTED_EDGE( '', *, *, #1786, .F. );
#1199 = ORIENTED_EDGE( '', *, *, #1910, .F. );
#1200 = ORIENTED_EDGE( '', *, *, #1904, .T. );
#1201 = CARTESIAN_POINT( '', ( -0.0544467654689969, 0.0254000000000000, -0.0222768376280110 ) );
#1202 = DIRECTION( '', ( 0.998912606910943, 0.000000000000000, 0.0466219235380038 ) );
#1203 = DIRECTION( '', ( 0.0466219235380038, 0.000000000000000, -0.998912606910943 ) );
#1204 = ORIENTED_EDGE( '', *, *, #1911, .T. );
#1205 = ORIENTED_EDGE( '', *, *, #1787, .F. );
#1206 = ORIENTED_EDGE( '', *, *, #1909, .F. );
#1207 = ORIENTED_EDGE( '', *, *, #1903, .T. );
#1208 = CARTESIAN_POINT( '', ( -0.0676374514782000, 0.0254000000000000, 0.00659446723362962 ) );
#1209 = DIRECTION( '', ( -0.000000000000000, 1.00000000000000, -0.000000000000000 ) );
#1210 = DIRECTION( '', ( -0.500000000000000, 0.000000000000000, 0.866025403784438 ) );
#1211 = ORIENTED_EDGE( '', *, *, #1784, .T. );
#1212 = ORIENTED_EDGE( '', *, *, #1911, .F. );
#1213 = ORIENTED_EDGE( '', *, *, #1902, .F. );
#1214 = ORIENTED_EDGE( '', *, *, #1912, .T. );
#1215 = CARTESIAN_POINT( '', ( -0.0953641475056693, 0.0254000000000000, -0.00885793611366562 ) );
#1216 = DIRECTION( '', ( 0.764810552410429, 0.000000000000000, -0.644255243612076 ) );
#1217 = DIRECTION( '', ( -0.644255243612076, 0.000000000000000, -0.764810552410429 ) );
#1218 = ORIENTED_EDGE( '', *, *, #1785, .T. );
#1219 = ORIENTED_EDGE( '', *, *, #1912, .F. );
#1220 = ORIENTED_EDGE( '', *, *, #1901, .F. );
#1221 = ORIENTED_EDGE( '', *, *, #1910, .T. );
#1222 = CARTESIAN_POINT( '', ( -0.0676374514782000, 0.0254000000000000, 0.00659446723362962 ) );
#1223 = DIRECTION( '', ( -0.000000000000000, 1.00000000000000, -0.000000000000000 ) );
#1224 = DIRECTION( '', ( -0.500000000000000, 0.000000000000000, 0.866025403784438 ) );
#1225 = ORIENTED_EDGE( '', *, *, #1913, .T. );
#1226 = ORIENTED_EDGE( '', *, *, #1914, .T. );
#1227 = ORIENTED_EDGE( '', *, *, #1915, .F. );
#1228 = ORIENTED_EDGE( '', *, *, #1916, .F. );
#1229 = CARTESIAN_POINT( '', ( -0.0618729848441734, 0.0254000000000000, -0.0281077495903527 ) );
#1230 = DIRECTION( '', ( 0.000000000000000, 1.00000000000000, 0.000000000000000 ) );
#1231 = DIRECTION( '', ( 0.866025403784439, 0.000000000000000, -0.500000000000000 ) );
#1232 = ORIENTED_EDGE( '', *, *, #1917, .F. );
#1233 = ORIENTED_EDGE( '', *, *, #1918, .T. );
#1234 = ORIENTED_EDGE( '', *, *, #1919, .T. );
#1235 = ORIENTED_EDGE( '', *, *, #1920, .F. );
#1236 = CARTESIAN_POINT( '', ( -0.0618729848441734, -0.0254000000000000, -0.0281077495903527 ) );
#1237 = DIRECTION( '', ( 0.000000000000000, 1.00000000000000, 0.000000000000000 ) );
#1238 = DIRECTION( '', ( 0.866025403784439, 0.000000000000000, -0.500000000000000 ) );
#1239 = ORIENTED_EDGE( '', *, *, #1921, .T. );
#1240 = ORIENTED_EDGE( '', *, *, #1782, .F. );
#1241 = ORIENTED_EDGE( '', *, *, #1922, .F. );
#1242 = ORIENTED_EDGE( '', *, *, #1916, .T. );
#1243 = CARTESIAN_POINT( '', ( -0.0360138632360392, 0.0254000000000000, -0.0465156900363371 ) );
#1244 = DIRECTION( '', ( 0.841772731976414, 0.000000000000000, 0.539832073612678 ) );
#1245 = DIRECTION( '', ( 0.539832073612678, 0.000000000000000, -0.841772731976414 ) );
#1246 = ORIENTED_EDGE( '', *, *, #1923, .T. );
#1247 = ORIENTED_EDGE( '', *, *, #1783, .F. );
#1248 = ORIENTED_EDGE( '', *, *, #1921, .F. );
#1249 = ORIENTED_EDGE( '', *, *, #1915, .T. );
#1250 = CARTESIAN_POINT( '', ( -0.0618729848441734, 0.0254000000000000, -0.0281077495903527 ) );
#1251 = DIRECTION( '', ( -0.000000000000000, 1.00000000000000, -0.000000000000000 ) );
#1252 = DIRECTION( '', ( -0.866025403784439, 0.000000000000000, 0.500000000000000 ) );
#1253 = ORIENTED_EDGE( '', *, *, #1780, .T. );
#1254 = ORIENTED_EDGE( '', *, *, #1923, .F. );
#1255 = ORIENTED_EDGE( '', *, *, #1914, .F. );
#1256 = ORIENTED_EDGE( '', *, *, #1924, .T. );
#1257 = CARTESIAN_POINT( '', ( -0.0781588062933232, 0.0254000000000000, -0.0553532714523687 ) );
#1258 = DIRECTION( '', ( 0.984472989275879, 0.000000000000000, -0.175536131284176 ) );
#1259 = DIRECTION( '', ( -0.175536131284176, 0.000000000000000, -0.984472989275879 ) );
#1260 = ORIENTED_EDGE( '', *, *, #1781, .T. );
#1261 = ORIENTED_EDGE( '', *, *, #1924, .F. );
#1262 = ORIENTED_EDGE( '', *, *, #1913, .F. );
#1263 = ORIENTED_EDGE( '', *, *, #1922, .T. );
#1264 = CARTESIAN_POINT( '', ( -0.0618729848441734, 0.0254000000000000, -0.0281077495903527 ) );
#1265 = DIRECTION( '', ( -0.000000000000000, 1.00000000000000, -0.000000000000000 ) );
#1266 = DIRECTION( '', ( -0.866025403784439, 0.000000000000000, 0.500000000000000 ) );
#1267 = ORIENTED_EDGE( '', *, *, #1925, .T. );
#1268 = ORIENTED_EDGE( '', *, *, #1926, .T. );
#1269 = ORIENTED_EDGE( '', *, *, #1927, .F. );
#1270 = ORIENTED_EDGE( '', *, *, #1928, .F. );
#1271 = CARTESIAN_POINT( '', ( -0.0395297018878474, 0.0254000000000000, -0.0552785176105437 ) );
#1272 = DIRECTION( '', ( -0.000000000000000, 1.00000000000000, 0.000000000000000 ) );
#1273 = DIRECTION( '', ( 1.00000000000000, 0.000000000000000, 2.77555756156289E-016 ) );
#1274 = ORIENTED_EDGE( '', *, *, #1929, .F. );
#1275 = ORIENTED_EDGE( '', *, *, #1930, .T. );
#1276 = ORIENTED_EDGE( '', *, *, #1931, .T. );
#1277 = ORIENTED_EDGE( '', *, *, #1932, .F. );
#1278 = CARTESIAN_POINT( '', ( -0.0395297018878474, -0.0254000000000000, -0.0552785176105437 ) );
#1279 = DIRECTION( '', ( -0.000000000000000, 1.00000000000000, 0.000000000000000 ) );
#1280 = DIRECTION( '', ( 1.00000000000000, 0.000000000000000, 2.77555756156289E-016 ) );
#1281 = ORIENTED_EDGE( '', *, *, #1933, .T. );
#1282 = ORIENTED_EDGE( '', *, *, #1778, .F. );
#1283 = ORIENTED_EDGE( '', *, *, #1934, .F. );
#1284 = ORIENTED_EDGE( '', *, *, #1928, .T. );
#1285 = CARTESIAN_POINT( '', ( -0.00793107543265987, 0.0254000000000000, -0.0582907008640502 ) );
#1286 = DIRECTION( '', ( 0.459080533298265, 0.000000000000000, 0.888394655514418 ) );
#1287 = DIRECTION( '', ( 0.888394655514418, 0.000000000000000, -0.459080533298265 ) );
#1288 = ORIENTED_EDGE( '', *, *, #1935, .T. );
#1289 = ORIENTED_EDGE( '', *, *, #1779, .F. );
#1290 = ORIENTED_EDGE( '', *, *, #1933, .F. );
#1291 = ORIENTED_EDGE( '', *, *, #1927, .T. );
#1292 = CARTESIAN_POINT( '', ( -0.0395297018878474, 0.0254000000000000, -0.0552785176105437 ) );
#1293 = DIRECTION( '', ( 0.000000000000000, 1.00000000000000, -0.000000000000000 ) );
#1294 = DIRECTION( '', ( -1.00000000000000, 0.000000000000000, -2.77555756156289E-016 ) );
#1295 = ORIENTED_EDGE( '', *, *, #1776, .T. );
#1296 = ORIENTED_EDGE( '', *, *, #1935, .F. );
#1297 = ORIENTED_EDGE( '', *, *, #1926, .F. );
#1298 = ORIENTED_EDGE( '', *, *, #1936, .T. );
#1299 = CARTESIAN_POINT( '', ( -0.0400108760533006, 0.0254000000000000, -0.0870167424069888 ) );
#1300 = DIRECTION( '', ( 0.940346683694604, 0.000000000000000, 0.340217745663803 ) );
#1301 = DIRECTION( '', ( 0.340217745663803, 0.000000000000000, -0.940346683694604 ) );
#1302 = ORIENTED_EDGE( '', *, *, #1777, .T. );
#1303 = ORIENTED_EDGE( '', *, *, #1936, .F. );
#1304 = ORIENTED_EDGE( '', *, *, #1925, .F. );
#1305 = ORIENTED_EDGE( '', *, *, #1934, .T. );
#1306 = CARTESIAN_POINT( '', ( -0.0395297018878474, 0.0254000000000000, -0.0552785176105437 ) );
#1307 = DIRECTION( '', ( 0.000000000000000, 1.00000000000000, -0.000000000000000 ) );
#1308 = DIRECTION( '', ( -1.00000000000000, 0.000000000000000, -2.77555756156289E-016 ) );
#1309 = ORIENTED_EDGE( '', *, *, #1937, .T. );
#1310 = ORIENTED_EDGE( '', *, *, #1938, .T. );
#1311 = ORIENTED_EDGE( '', *, *, #1939, .F. );
#1312 = ORIENTED_EDGE( '', *, *, #1940, .F. );
#1313 = CARTESIAN_POINT( '', ( -0.00659446723362964, 0.0254000000000000, -0.0676374514782000 ) );
#1314 = DIRECTION( '', ( -0.000000000000000, 1.00000000000000, 0.000000000000000 ) );
#1315 = DIRECTION( '', ( 0.866025403784439, 0.000000000000000, 0.500000000000000 ) );
#1316 = ORIENTED_EDGE( '', *, *, #1941, .F. );
#1317 = ORIENTED_EDGE( '', *, *, #1942, .T. );
#1318 = ORIENTED_EDGE( '', *, *, #1943, .T. );
#1319 = ORIENTED_EDGE( '', *, *, #1944, .F. );
#1320 = CARTESIAN_POINT( '', ( -0.00659446723362964, -0.0254000000000000, -0.0676374514782000 ) );
#1321 = DIRECTION( '', ( -0.000000000000000, 1.00000000000000, 0.000000000000000 ) );
#1322 = DIRECTION( '', ( 0.866025403784439, 0.000000000000000, 0.500000000000000 ) );
#1323 = ORIENTED_EDGE( '', *, *, #1945, .T. );
#1324 = ORIENTED_EDGE( '', *, *, #1774, .F. );
#1325 = ORIENTED_EDGE( '', *, *, #1946, .F. );
#1326 = ORIENTED_EDGE( '', *, *, #1940, .T. );
#1327 = CARTESIAN_POINT( '', ( 0.0222768376280110, 0.0254000000000000, -0.0544467654689969 ) );
#1328 = DIRECTION( '', ( -0.0466219235380036, 0.000000000000000, 0.998912606910943 ) );
#1329 = DIRECTION( '', ( 0.998912606910943, 0.000000000000000, 0.0466219235380036 ) );
#1330 = ORIENTED_EDGE( '', *, *, #1947, .T. );
#1331 = ORIENTED_EDGE( '', *, *, #1775, .F. );
#1332 = ORIENTED_EDGE( '', *, *, #1945, .F. );
#1333 = ORIENTED_EDGE( '', *, *, #1939, .T. );
#1334 = CARTESIAN_POINT( '', ( -0.00659446723362964, 0.0254000000000000, -0.0676374514782000 ) );
#1335 = DIRECTION( '', ( 0.000000000000000, 1.00000000000000, -0.000000000000000 ) );
#1336 = DIRECTION( '', ( -0.866025403784438, 0.000000000000000, -0.500000000000000 ) );
#1337 = ORIENTED_EDGE( '', *, *, #1772, .T. );
#1338 = ORIENTED_EDGE( '', *, *, #1947, .F. );
#1339 = ORIENTED_EDGE( '', *, *, #1938, .F. );
#1340 = ORIENTED_EDGE( '', *, *, #1948, .T. );
#1341 = CARTESIAN_POINT( '', ( 0.00885793611366560, 0.0254000000000000, -0.0953641475056693 ) );
#1342 = DIRECTION( '', ( 0.644255243612076, 0.000000000000000, 0.764810552410428 ) );
#1343 = DIRECTION( '', ( 0.764810552410428, 0.000000000000000, -0.644255243612076 ) );
#1344 = ORIENTED_EDGE( '', *, *, #1773, .T. );
#1345 = ORIENTED_EDGE( '', *, *, #1948, .F. );
#1346 = ORIENTED_EDGE( '', *, *, #1937, .F. );
#1347 = ORIENTED_EDGE( '', *, *, #1946, .T. );
#1348 = CARTESIAN_POINT( '', ( -0.00659446723362964, 0.0254000000000000, -0.0676374514782000 ) );
#1349 = DIRECTION( '', ( 0.000000000000000, 1.00000000000000, -0.000000000000000 ) );
#1350 = DIRECTION( '', ( -0.866025403784439, 0.000000000000000, -0.500000000000000 ) );
#1351 = ORIENTED_EDGE( '', *, *, #1949, .T. );
#1352 = ORIENTED_EDGE( '', *, *, #1950, .T. );
#1353 = ORIENTED_EDGE( '', *, *, #1951, .F. );
#1354 = ORIENTED_EDGE( '', *, *, #1952, .F. );
#1355 = CARTESIAN_POINT( '', ( 0.0281077495903526, 0.0254000000000000, -0.0618729848441734 ) );
#1356 = DIRECTION( '', ( -0.000000000000000, 1.00000000000000, 0.000000000000000 ) );
#1357 = DIRECTION( '', ( 0.500000000000000, 0.000000000000000, 0.866025403784439 ) );
#1358 = ORIENTED_EDGE( '', *, *, #1953, .F. );
#1359 = ORIENTED_EDGE( '', *, *, #1954, .T. );
#1360 = ORIENTED_EDGE( '', *, *, #1955, .T. );
#1361 = ORIENTED_EDGE( '', *, *, #1956, .F. );
#1362 = CARTESIAN_POINT( '', ( 0.0281077495903526, -0.0254000000000000, -0.0618729848441734 ) );
#1363 = DIRECTION( '', ( -0.000000000000000, 1.00000000000000, 0.000000000000000 ) );
#1364 = DIRECTION( '', ( 0.500000000000000, 0.000000000000000, 0.866025403784439 ) );
#1365 = ORIENTED_EDGE( '', *, *, #1957, .T. );
#1366 = ORIENTED_EDGE( '', *, *, #1770, .F. );
#1367 = ORIENTED_EDGE( '', *, *, #1958, .F. );
#1368 = ORIENTED_EDGE( '', *, *, #1952, .T. );
#1369 = CARTESIAN_POINT( '', ( 0.0465156900363370, 0.0254000000000000, -0.0360138632360392 ) );
#1370 = DIRECTION( '', ( -0.539832073612678, 0.000000000000000, 0.841772731976414 ) );
#1371 = DIRECTION( '', ( 0.841772731976414, 0.000000000000000, 0.539832073612678 ) );
#1372 = ORIENTED_EDGE( '', *, *, #1959, .T. );
#1373 = ORIENTED_EDGE( '', *, *, #1771, .F. );
#1374 = ORIENTED_EDGE( '', *, *, #1957, .F. );
#1375 = ORIENTED_EDGE( '', *, *, #1951, .T. );
#1376 = CARTESIAN_POINT( '', ( 0.0281077495903526, 0.0254000000000000, -0.0618729848441734 ) );
#1377 = DIRECTION( '', ( 0.000000000000000, 1.00000000000000, -0.000000000000000 ) );
#1378 = DIRECTION( '', ( -0.500000000000000, 0.000000000000000, -0.866025403784439 ) );
#1379 = ORIENTED_EDGE( '', *, *, #1768, .T. );
#1380 = ORIENTED_EDGE( '', *, *, #1959, .F. );
#1381 = ORIENTED_EDGE( '', *, *, #1950, .F. );
#1382 = ORIENTED_EDGE( '', *, *, #1960, .T. );
#1383 = CARTESIAN_POINT( '', ( 0.0553532714523686, 0.0254000000000000, -0.0781588062933232 ) );
#1384 = DIRECTION( '', ( 0.175536131284176, 0.000000000000000, 0.984472989275879 ) );
#1385 = DIRECTION( '', ( 0.984472989275879, 0.000000000000000, -0.175536131284176 ) );
#1386 = ORIENTED_EDGE( '', *, *, #1769, .T. );
#1387 = ORIENTED_EDGE( '', *, *, #1960, .F. );
#1388 = ORIENTED_EDGE( '', *, *, #1949, .F. );
#1389 = ORIENTED_EDGE( '', *, *, #1958, .T. );
#1390 = CARTESIAN_POINT( '', ( 0.0281077495903526, 0.0254000000000000, -0.0618729848441734 ) );
#1391 = DIRECTION( '', ( 0.000000000000000, 1.00000000000000, -0.000000000000000 ) );
#1392 = DIRECTION( '', ( -0.500000000000000, 0.000000000000000, -0.866025403784439 ) );
#1393 = ORIENTED_EDGE( '', *, *, #1961, .T. );
#1394 = ORIENTED_EDGE( '', *, *, #1766, .F. );
#1395 = ORIENTED_EDGE( '', *, *, #1821, .F. );
#1396 = ORIENTED_EDGE( '', *, *, #1713, .T. );
#1397 = CARTESIAN_POINT( '', ( 0.0582907008640502, 0.0254000000000000, -0.00793107543265989 ) );
#1398 = DIRECTION( '', ( -0.888394655514418, 0.000000000000000, 0.459080533298265 ) );
#1399 = DIRECTION( '', ( 0.459080533298265, 0.000000000000000, 0.888394655514418 ) );
#1400 = ORIENTED_EDGE( '', *, *, #1822, .T. );
#1401 = ORIENTED_EDGE( '', *, *, #1767, .F. );
#1402 = ORIENTED_EDGE( '', *, *, #1961, .F. );
#1403 = ORIENTED_EDGE( '', *, *, #1712, .T. );
#1404 = CARTESIAN_POINT( '', ( 0.0552785176105437, 0.0254000000000000, -0.0395297018878474 ) );
#1405 = DIRECTION( '', ( -0.000000000000000, 1.00000000000000, 0.000000000000000 ) );
#1406 = DIRECTION( '', ( 0.000000000000000, 0.000000000000000, -1.00000000000000 ) );
#1407 = ORIENTED_EDGE( '', *, *, #1719, .T. );
#1408 = ORIENTED_EDGE( '', *, *, #1819, .T. );
#1409 = ORIENTED_EDGE( '', *, *, #1815, .F. );
#1410 = ORIENTED_EDGE( '', *, *, #1813, .F. );
#1411 = CARTESIAN_POINT( '', ( 0.0582907008640502, 0.0254000000000000, -0.00793107543265989 ) );
#1412 = DIRECTION( '', ( -0.888394655514418, 0.000000000000000, 0.459080533298265 ) );
#1413 = DIRECTION( '', ( 0.459080533298265, 0.000000000000000, 0.888394655514418 ) );
#1414 = ORIENTED_EDGE( '', *, *, #1818, .F. );
#1415 = ORIENTED_EDGE( '', *, *, #1717, .F. );
#1416 = ORIENTED_EDGE( '', *, *, #1812, .T. );
#1417 = ORIENTED_EDGE( '', *, *, #1817, .T. );
#1418 = CARTESIAN_POINT( '', ( 0.0870167424069888, 0.0254000000000000, -0.0400108760533006 ) );
#1419 = DIRECTION( '', ( -0.340217745663803, 0.000000000000000, 0.940346683694604 ) );
#1420 = DIRECTION( '', ( 0.940346683694604, 0.000000000000000, 0.340217745663803 ) );
#1421 = ORIENTED_EDGE( '', *, *, #1962, .F. );
#1422 = ORIENTED_EDGE( '', *, *, #1720, .F. );
#1423 = ORIENTED_EDGE( '', *, *, #1963, .T. );
#1424 = ORIENTED_EDGE( '', *, *, #1953, .T. );
#1425 = CARTESIAN_POINT( '', ( 0.0281077495903526, 0.0254000000000000, -0.0618729848441734 ) );
#1426 = DIRECTION( '', ( 0.000000000000000, 1.00000000000000, -0.000000000000000 ) );
#1427 = DIRECTION( '', ( -0.500000000000000, 0.000000000000000, -0.866025403784439 ) );
#1428 = ORIENTED_EDGE( '', *, *, #1722, .T. );
#1429 = ORIENTED_EDGE( '', *, *, #1964, .T. );
#1430 = ORIENTED_EDGE( '', *, *, #1955, .F. );
#1431 = ORIENTED_EDGE( '', *, *, #1965, .F. );
#1432 = CARTESIAN_POINT( '', ( 0.0281077495903526, 0.0254000000000000, -0.0618729848441734 ) );
#1433 = DIRECTION( '', ( 0.000000000000000, 1.00000000000000, -0.000000000000000 ) );
#1434 = DIRECTION( '', ( -0.500000000000000, 0.000000000000000, -0.866025403784439 ) );
#1435 = ORIENTED_EDGE( '', *, *, #1723, .T. );
#1436 = ORIENTED_EDGE( '', *, *, #1965, .T. );
#1437 = ORIENTED_EDGE( '', *, *, #1954, .F. );
[...]
#3434 = DIRECTION( '', ( 0.000000000000000, 1.00000000000000, 0.000000000000000 ) );
#3435 = DIRECTION( '', ( -0.866025403784439, 0.000000000000000, 0.499999999999999 ) );
#3436 = DIRECTION( '', ( -0.175536131284175, 0.000000000000000, -0.984472989275879 ) );
#3437 = DIRECTION( '', ( 0.000000000000000, -1.00000000000000, -0.000000000000000 ) );
#3438 = CARTESIAN_POINT( '', ( 0.0618729848441734, 0.0254000000000000, 0.0281077495903527 ) );
#3439 = DIRECTION( '', ( 0.000000000000000, 1.00000000000000, 0.000000000000000 ) );
#3440 = DIRECTION( '', ( -0.866025403784439, 0.000000000000000, 0.499999999999999 ) );
#3441 = CARTESIAN_POINT( '', ( 0.0395297018878473, 0.0254000000000000, 0.0552785176105438 ) );
#3442 = DIRECTION( '', ( 0.000000000000000, 1.00000000000000, 0.000000000000000 ) );
#3443 = DIRECTION( '', ( -1.00000000000000, 0.000000000000000, -8.32667268468867E-016 ) );
#3444 = DIRECTION( '', ( 0.340217745663803, 0.000000000000000, -0.940346683694604 ) );
#3445 = CARTESIAN_POINT( '', ( 0.0395297018878473, 0.0254000000000000, 0.0552785176105438 ) );
#3446 = DIRECTION( '', ( 0.000000000000000, 1.00000000000000, 0.000000000000000 ) );
#3447 = DIRECTION( '', ( -1.00000000000000, 0.000000000000000, -8.32667268468867E-016 ) );
#3448 = DIRECTION( '', ( 0.888394655514418, 0.000000000000000, -0.459080533298264 ) );
#3449 = CARTESIAN_POINT( '', ( 0.0395297018878473, -0.0254000000000000, 0.0552785176105438 ) );
#3450 = DIRECTION( '', ( 0.000000000000000, 1.00000000000000, 0.000000000000000 ) );
#3451 = DIRECTION( '', ( -1.00000000000000, 0.000000000000000, -8.32667268468867E-016 ) );
#3452 = DIRECTION( '', ( 0.888394655514418, 0.000000000000000, -0.459080533298264 ) );
#3453 = CARTESIAN_POINT( '', ( 0.0395297018878473, -0.0254000000000000, 0.0552785176105438 ) );
#3454 = DIRECTION( '', ( 0.000000000000000, 1.00000000000000, 0.000000000000000 ) );
#3455 = DIRECTION( '', ( -1.00000000000000, 0.000000000000000, -8.32667268468867E-016 ) );
#3456 = DIRECTION( '', ( 0.340217745663803, 0.000000000000000, -0.940346683694604 ) );
#3457 = DIRECTION( '', ( 0.000000000000000, -1.00000000000000, 0.000000000000000 ) );
#3458 = DIRECTION( '', ( 0.000000000000000, -1.00000000000000, 0.000000000000000 ) );
#3459 = DIRECTION( '', ( 0.000000000000000, -1.00000000000000, 0.000000000000000 ) );
#3460 = DIRECTION( '', ( 0.000000000000000, -1.00000000000000, 0.000000000000000 ) );
#3461 = CARTESIAN_POINT( '', ( 0.00659446723362960, 0.0254000000000000, 0.0676374514782000 ) );
#3462 = DIRECTION( '', ( 0.000000000000000, 1.00000000000000, 0.000000000000000 ) );
#3463 = DIRECTION( '', ( -0.866025403784438, 0.000000000000000, -0.500000000000001 ) );
#3464 = DIRECTION( '', ( 0.764810552410429, 0.000000000000000, -0.644255243612076 ) );
#3465 = CARTESIAN_POINT( '', ( 0.00659446723362960, 0.0254000000000000, 0.0676374514782000 ) );
#3466 = DIRECTION( '', ( 0.000000000000000, 1.00000000000000, 0.000000000000000 ) );
#3467 = DIRECTION( '', ( -0.866025403784438, 0.000000000000000, -0.500000000000001 ) );
#3468 = DIRECTION( '', ( 0.998912606910943, 0.000000000000000, 0.0466219235380042 ) );
#3469 = CARTESIAN_POINT( '', ( 0.00659446723362960, -0.0254000000000000, 0.0676374514782000 ) );
#3470 = DIRECTION( '', ( 0.000000000000000, 1.00000000000000, 0.000000000000000 ) );
#3471 = DIRECTION( '', ( -0.866025403784438, 0.000000000000000, -0.500000000000001 ) );
#3472 = DIRECTION( '', ( 0.998912606910943, 0.000000000000000, 0.0466219235380042 ) );
#3473 = CARTESIAN_POINT( '', ( 0.00659446723362960, -0.0254000000000000, 0.0676374514782000 ) );
#3474 = DIRECTION( '', ( 0.000000000000000, 1.00000000000000, 0.000000000000000 ) );
#3475 = DIRECTION( '', ( -0.866025403784438, 0.000000000000000, -0.500000000000001 ) );
#3476 = DIRECTION( '', ( 0.764810552410429, 0.000000000000000, -0.644255243612076 ) );
#3477 = DIRECTION( '', ( 0.000000000000000, -1.00000000000000, 0.000000000000000 ) );
#3478 = DIRECTION( '', ( 0.000000000000000, -1.00000000000000, 0.000000000000000 ) );
#3479 = DIRECTION( '', ( 0.000000000000000, -1.00000000000000, 0.000000000000000 ) );
#3480 = DIRECTION( '', ( 0.000000000000000, -1.00000000000000, 0.000000000000000 ) );
#3481 = CARTESIAN_POINT( '', ( -0.0281077495903527, 0.0254000000000000, 0.0618729848441734 ) );
#3482 = DIRECTION( '', ( 0.000000000000000, 1.00000000000000, 0.000000000000000 ) );
#3483 = DIRECTION( '', ( -0.499999999999999, 0.000000000000000, -0.866025403784439 ) );
#3484 = DIRECTION( '', ( 0.984472989275879, 0.000000000000000, -0.175536131284176 ) );
#3485 = CARTESIAN_POINT( '', ( -0.0281077495903527, 0.0254000000000000, 0.0618729848441734 ) );
#3486 = DIRECTION( '', ( 0.000000000000000, 1.00000000000000, 0.000000000000000 ) );
#3487 = DIRECTION( '', ( -0.499999999999999, 0.000000000000000, -0.866025403784439 ) );
#3488 = DIRECTION( '', ( 0.841772731976414, 0.000000000000000, 0.539832073612679 ) );
#3489 = CARTESIAN_POINT( '', ( -0.0281077495903527, -0.0254000000000000, 0.0618729848441734 ) );
#3490 = DIRECTION( '', ( 0.000000000000000, 1.00000000000000, 0.000000000000000 ) );
#3491 = DIRECTION( '', ( -0.499999999999999, 0.000000000000000, -0.866025403784439 ) );
#3492 = DIRECTION( '', ( 0.841772731976414, 0.000000000000000, 0.539832073612679 ) );
#3493 = CARTESIAN_POINT( '', ( -0.0281077495903527, -0.0254000000000000, 0.0618729848441734 ) );
#3494 = DIRECTION( '', ( 0.000000000000000, 1.00000000000000, 0.000000000000000 ) );
#3495 = DIRECTION( '', ( -0.499999999999999, 0.000000000000000, -0.866025403784439 ) );
#3496 = DIRECTION( '', ( 0.984472989275879, 0.000000000000000, -0.175536131284176 ) );
#3497 = DIRECTION( '', ( 0.000000000000000, -1.00000000000000, 0.000000000000000 ) );
#3498 = DIRECTION( '', ( 0.000000000000000, -1.00000000000000, 0.000000000000000 ) );
#3499 = DIRECTION( '', ( 0.000000000000000, -1.00000000000000, 0.000000000000000 ) );
#3500 = DIRECTION( '', ( 0.000000000000000, -1.00000000000000, 0.000000000000000 ) );
#3501 = CARTESIAN_POINT( '', ( -0.0552785176105437, 0.0254000000000000, 0.0395297018878474 ) );
#3502 = DIRECTION( '', ( 0.000000000000000, 1.00000000000000, 0.000000000000000 ) );
#3503 = DIRECTION( '', ( 5.55111512312578E-016, 0.000000000000000, -1.00000000000000 ) );
#3504 = DIRECTION( '', ( 0.940346683694604, 0.000000000000000, 0.340217745663803 ) );
#3505 = CARTESIAN_POINT( '', ( -0.0552785176105437, 0.0254000000000000, 0.0395297018878474 ) );
#3506 = DIRECTION( '', ( 0.000000000000000, 1.00000000000000, 0.000000000000000 ) );
#3507 = DIRECTION( '', ( 5.55111512312578E-016, 0.000000000000000, -1.00000000000000 ) );
#3508 = DIRECTION( '', ( 0.459080533298265, 0.000000000000000, 0.888394655514418 ) );
#3509 = CARTESIAN_POINT( '', ( -0.0552785176105437, -0.0254000000000000, 0.0395297018878474 ) );
#3510 = DIRECTION( '', ( 0.000000000000000, 1.00000000000000, 0.000000000000000 ) );
#3511 = DIRECTION( '', ( 5.55111512312578E-016, 0.000000000000000, -1.00000000000000 ) );
#3512 = DIRECTION( '', ( 0.459080533298265, 0.000000000000000, 0.888394655514418 ) );
#3513 = CARTESIAN_POINT( '', ( -0.0552785176105437, -0.0254000000000000, 0.0395297018878474 ) );
#3514 = DIRECTION( '', ( 0.000000000000000, 1.00000000000000, 0.000000000000000 ) );
#3515 = DIRECTION( '', ( 5.55111512312578E-016, 0.000000000000000, -1.00000000000000 ) );
#3516 = DIRECTION( '', ( 0.940346683694604, 0.000000000000000, 0.340217745663803 ) );
#3517 = DIRECTION( '', ( 0.000000000000000, -1.00000000000000, 0.000000000000000 ) );
#3518 = DIRECTION( '', ( 0.000000000000000, -1.00000000000000, 0.000000000000000 ) );
#3519 = DIRECTION( '', ( 0.000000000000000, -1.00000000000000, 0.000000000000000 ) );
#3520 = DIRECTION( '', ( 0.000000000000000, -1.00000000000000, 0.000000000000000 ) );
#3521 = CARTESIAN_POINT( '', ( -0.0676374514782000, 0.0254000000000000, 0.00659446723362962 ) );
#3522 = DIRECTION( '', ( 0.000000000000000, 1.00000000000000, 0.000000000000000 ) );
#3523 = DIRECTION( '', ( 0.500000000000000, 0.000000000000000, -0.866025403784438 ) );
#3524 = DIRECTION( '', ( 0.644255243612076, 0.000000000000000, 0.764810552410429 ) );
#3525 = CARTESIAN_POINT( '', ( -0.0676374514782000, 0.0254000000000000, 0.00659446723362962 ) );
#3526 = DIRECTION( '', ( 0.000000000000000, 1.00000000000000, 0.000000000000000 ) );
#3527 = DIRECTION( '', ( 0.500000000000000, 0.000000000000000, -0.866025403784438 ) );
#3528 = DIRECTION( '', ( -0.0466219235380038, 0.000000000000000, 0.998912606910943 ) );
#3529 = CARTESIAN_POINT( '', ( -0.0676374514782000, -0.0254000000000000, 0.00659446723362962 ) );
#3530 = DIRECTION( '', ( 0.000000000000000, 1.00000000000000, 0.000000000000000 ) );
#3531 = DIRECTION( '', ( 0.500000000000000, 0.000000000000000, -0.866025403784438 ) );
#3532 = DIRECTION( '', ( -0.0466219235380038, 0.000000000000000, 0.998912606910943 ) );
#3533 = CARTESIAN_POINT( '', ( -0.0676374514782000, -0.0254000000000000, 0.00659446723362962 ) );
#3534 = DIRECTION( '', ( 0.000000000000000, 1.00000000000000, 0.000000000000000 ) );
#3535 = DIRECTION( '', ( 0.500000000000000, 0.000000000000000, -0.866025403784438 ) );
#3536 = DIRECTION( '', ( 0.644255243612076, 0.000000000000000, 0.764810552410429 ) );
#3537 = DIRECTION( '', ( 0.000000000000000, -1.00000000000000, 0.000000000000000 ) );
#3538 = DIRECTION( '', ( 0.000000000000000, -1.00000000000000, 0.000000000000000 ) );
#3539 = DIRECTION( '', ( 0.000000000000000, -1.00000000000000, 0.000000000000000 ) );
#3540 = DIRECTION( '', ( 0.000000000000000, -1.00000000000000, 0.000000000000000 ) );
#3541 = CARTESIAN_POINT( '', ( -0.0618729848441734, 0.0254000000000000, -0.0281077495903527 ) );
#3542 = DIRECTION( '', ( 0.000000000000000, 1.00000000000000, 0.000000000000000 ) );
#3543 = DIRECTION( '', ( 0.866025403784439, 0.000000000000000, -0.500000000000000 ) );
#3544 = DIRECTION( '', ( 0.175536131284176, 0.000000000000000, 0.984472989275879 ) );
#3545 = CARTESIAN_POINT( '', ( -0.0618729848441734, 0.0254000000000000, -0.0281077495903527 ) );
#3546 = DIRECTION( '', ( 0.000000000000000, 1.00000000000000, 0.000000000000000 ) );
#3547 = DIRECTION( '', ( 0.866025403784439, 0.000000000000000, -0.500000000000000 ) );
#3548 = DIRECTION( '', ( -0.539832073612678, 0.000000000000000, 0.841772731976414 ) );
#3549 = CARTESIAN_POINT( '', ( -0.0618729848441734, -0.0254000000000000, -0.0281077495903527 ) );
#3550 = DIRECTION( '', ( 0.000000000000000, 1.00000000000000, 0.000000000000000 ) );
#3551 = DIRECTION( '', ( 0.866025403784439, 0.000000000000000, -0.500000000000000 ) );
#3552 = DIRECTION( '', ( -0.539832073612678, 0.000000000000000, 0.841772731976414 ) );
#3553 = CARTESIAN_POINT( '', ( -0.0618729848441734, -0.0254000000000000, -0.0281077495903527 ) );
#3554 = DIRECTION( '', ( 0.000000000000000, 1.00000000000000, 0.000000000000000 ) );
#3555 = DIRECTION( '', ( 0.866025403784439, 0.000000000000000, -0.500000000000000 ) );
#3556 = DIRECTION( '', ( 0.175536131284176, 0.000000000000000, 0.984472989275879 ) );
#3557 = DIRECTION( '', ( 0.000000000000000, -1.00000000000000, 0.000000000000000 ) );
#3558 = DIRECTION( '', ( 0.000000000000000, -1.00000000000000, 0.000000000000000 ) );
#3559 = DIRECTION( '', ( 0.000000000000000, -1.00000000000000, 0.000000000000000 ) );
#3560 = DIRECTION( '', ( 0.000000000000000, -1.00000000000000, 0.000000000000000 ) );
#3561 = CARTESIAN_POINT( '', ( -0.0395297018878474, 0.0254000000000000, -0.0552785176105437 ) );
#3562 = DIRECTION( '', ( -0.000000000000000, 1.00000000000000, 0.000000000000000 ) );
#3563 = DIRECTION( '', ( 1.00000000000000, 0.000000000000000, 2.77555756156289E-016 ) );
#3564 = DIRECTION( '', ( -0.340217745663803, 0.000000000000000, 0.940346683694604 ) );
#3565 = CARTESIAN_POINT( '', ( -0.0395297018878474, 0.0254000000000000, -0.0552785176105437 ) );
#3566 = DIRECTION( '', ( -0.000000000000000, 1.00000000000000, 0.000000000000000 ) );
#3567 = DIRECTION( '', ( 1.00000000000000, 0.000000000000000, 2.77555756156289E-016 ) );
#3568 = DIRECTION( '', ( -0.888394655514418, 0.000000000000000, 0.459080533298265 ) );
#3569 = CARTESIAN_POINT( '', ( -0.0395297018878474, -0.0254000000000000, -0.0552785176105437 ) );
#3570 = DIRECTION( '', ( -0.000000000000000, 1.00000000000000, 0.000000000000000 ) );
#3571 = DIRECTION( '', ( 1.00000000000000, 0.000000000000000, 2.77555756156289E-016 ) );
#3572 = DIRECTION( '', ( -0.888394655514418, 0.000000000000000, 0.459080533298265 ) );
#3573 = CARTESIAN_POINT( '', ( -0.0395297018878474, -0.0254000000000000, -0.0552785176105437 ) );
#3574 = DIRECTION( '', ( -0.000000000000000, 1.00000000000000, 0.000000000000000 ) );
#3575 = DIRECTION( '', ( 1.00000000000000, 0.000000000000000, 2.77555756156289E-016 ) );
#3576 = DIRECTION( '', ( -0.340217745663803, 0.000000000000000, 0.940346683694604 ) );
#3577 = DIRECTION( '', ( -0.000000000000000, -1.00000000000000, 0.000000000000000 ) );
#3578 = DIRECTION( '', ( -0.000000000000000, -1.00000000000000, 0.000000000000000 ) );
#3579 = DIRECTION( '', ( -0.000000000000000, -1.00000000000000, 0.000000000000000 ) );
#3580 = DIRECTION( '', ( -0.000000000000000, -1.00000000000000, 0.000000000000000 ) );
#3581 = CARTESIAN_POINT( '', ( -0.00659446723362964, 0.0254000000000000, -0.0676374514782000 ) );
#3582 = DIRECTION( '', ( -0.000000000000000, 1.00000000000000, 0.000000000000000 ) );
#3583 = DIRECTION( '', ( 0.866025403784439, 0.000000000000000, 0.500000000000000 ) );
#3584 = DIRECTION( '', ( -0.764810552410428, 0.000000000000000, 0.644255243612076 ) );
#3585 = CARTESIAN_POINT( '', ( -0.00659446723362964, 0.0254000000000000, -0.0676374514782000 ) );
#3586 = DIRECTION( '', ( -0.000000000000000, 1.00000000000000, 0.000000000000000 ) );
#3587 = DIRECTION( '', ( 0.866025403784438, 0.000000000000000, 0.500000000000000 ) );
#3588 = DIRECTION( '', ( -0.998912606910943, 0.000000000000000, -0.0466219235380036 ) );
#3589 = CARTESIAN_POINT( '', ( -0.00659446723362964, -0.0254000000000000, -0.0676374514782000 ) );
#3590 = DIRECTION( '', ( -0.000000000000000, 1.00000000000000, 0.000000000000000 ) );
#3591 = DIRECTION( '', ( 0.866025403784439, 0.000000000000000, 0.500000000000000 ) );
#3592 = DIRECTION( '', ( -0.998912606910943, 0.000000000000000, -0.0466219235380036 ) );
#3593 = CARTESIAN_POINT( '', ( -0.00659446723362964, -0.0254000000000000, -0.0676374514782000 ) );
#3594 = DIRECTION( '', ( -0.000000000000000, 1.00000000000000, 0.000000000000000 ) );
#3595 = DIRECTION( '', ( 0.866025403784438, 0.000000000000000, 0.500000000000000 ) );
#3596 = DIRECTION( '', ( -0.764810552410428, 0.000000000000000, 0.644255243612076 ) );
#3597 = DIRECTION( '', ( -0.000000000000000, -1.00000000000000, 0.000000000000000 ) );
#3598 = DIRECTION( '', ( -0.000000000000000, -1.00000000000000, 0.000000000000000 ) );
#3599 = DIRECTION( '', ( -0.000000000000000, -1.00000000000000, 0.000000000000000 ) );
#3600 = DIRECTION( '', ( -0.000000000000000, -1.00000000000000, 0.000000000000000 ) );
#3601 = CARTESIAN_POINT( '', ( 0.0281077495903526, 0.0254000000000000, -0.0618729848441734 ) );
#3602 = DIRECTION( '', ( -0.000000000000000, 1.00000000000000, 0.000000000000000 ) );
#3603 = DIRECTION( '', ( 0.500000000000000, 0.000000000000000, 0.866025403784439 ) );
#3604 = DIRECTION( '', ( -0.984472989275879, 0.000000000000000, 0.175536131284176 ) );
#3605 = CARTESIAN_POINT( '', ( 0.0281077495903526, 0.0254000000000000, -0.0618729848441734 ) );
#3606 = DIRECTION( '', ( -0.000000000000000, 1.00000000000000, 0.000000000000000 ) );
#3607 = DIRECTION( '', ( 0.500000000000000, 0.000000000000000, 0.866025403784439 ) );
#3608 = DIRECTION( '', ( -0.841772731976414, 0.000000000000000, -0.539832073612678 ) );
#3609 = CARTESIAN_POINT( '', ( 0.0281077495903526, -0.0254000000000000, -0.0618729848441734 ) );
#3610 = DIRECTION( '', ( -0.000000000000000, 1.00000000000000, 0.000000000000000 ) );
#3611 = DIRECTION( '', ( 0.500000000000000, 0.000000000000000, 0.866025403784439 ) );
#3612 = DIRECTION( '', ( -0.841772731976414, 0.000000000000000, -0.539832073612678 ) );
#3613 = CARTESIAN_POINT( '', ( 0.0281077495903526, -0.0254000000000000, -0.0618729848441734 ) );
#3614 = DIRECTION( '', ( -0.000000000000000, 1.00000000000000, 0.000000000000000 ) );
#3615 = DIRECTION( '', ( 0.500000000000000, 0.000000000000000, 0.866025403784439 ) );
#3616 = DIRECTION( '', ( -0.984472989275879, 0.000000000000000, 0.175536131284176 ) );
#3617 = DIRECTION( '', ( -0.000000000000000, -1.00000000000000, 0.000000000000000 ) );
#3618 = DIRECTION( '', ( -0.000000000000000, -1.00000000000000, 0.000000000000000 ) );
#3619 = DIRECTION( '', ( -0.000000000000000, -1.00000000000000, 0.000000000000000 ) );
#3620 = DIRECTION( '', ( -0.000000000000000, -1.00000000000000, 0.000000000000000 ) );
#3621 = DIRECTION( '', ( -0.000000000000000, -1.00000000000000, -0.000000000000000 ) );
#3622 = DIRECTION( '', ( -0.000000000000000, -1.00000000000000, 0.000000000000000 ) );
#3623 = DIRECTION( '', ( -0.000000000000000, -1.00000000000000, 0.000000000000000 ) );
#3624 = DIRECTION( '', ( -0.000000000000000, -1.00000000000000, 0.000000000000000 ) );
#3625 = DIRECTION( '', ( -0.000000000000000, -1.00000000000000, 0.000000000000000 ) );
#3626 = DIRECTION( '', ( 0.000000000000000, -1.00000000000000, -0.000000000000000 ) );
#3627 = DIRECTION( '', ( 0.000000000000000, -1.00000000000000, -0.000000000000000 ) );
#3628 = DIRECTION( '', ( 0.000000000000000, -1.00000000000000, 0.000000000000000 ) );
#3629 = DIRECTION( '', ( 0.000000000000000, -1.00000000000000, 0.000000000000000 ) );
#3630 = DIRECTION( '', ( 0.000000000000000, -1.00000000000000, 0.000000000000000 ) );
#3631 = DIRECTION( '', ( 0.000000000000000, -1.00000000000000, 0.000000000000000 ) );
#3632 = DIRECTION( '', ( 0.000000000000000, -1.00000000000000, 0.000000000000000 ) );
#3633 = DIRECTION( '', ( 0.000000000000000, -1.00000000000000, 0.000000000000000 ) );
#3634 = DIRECTION( '', ( 0.000000000000000, -1.00000000000000, 0.000000000000000 ) );
#3635 = DIRECTION( '', ( 0.000000000000000, -1.00000000000000, 0.000000000000000 ) );
#3636 = DIRECTION( '', ( 0.000000000000000, -1.00000000000000, 0.000000000000000 ) );
#3637 = DIRECTION( '', ( 0.000000000000000, -1.00000000000000, 0.000000000000000 ) );
#3638 = DIRECTION( '', ( 0.000000000000000, -1.00000000000000, 0.000000000000000 ) );
#3639 = DIRECTION( '', ( 0.000000000000000, -1.00000000000000, 0.000000000000000 ) );
#3640 = DIRECTION( '', ( 0.000000000000000, -1.00000000000000, 0.000000000000000 ) );
#3641 = DIRECTION( '', ( 0.000000000000000, -1.00000000000000, 0.000000000000000 ) );
#3642 = DIRECTION( '', ( 0.000000000000000, -1.00000000000000, 0.000000000000000 ) );
#3643 = DIRECTION( '', ( 0.000000000000000, -1.00000000000000, 0.000000000000000 ) );
#3644 = DIRECTION( '', ( 0.000000000000000, -1.00000000000000, 0.000000000000000 ) );
#3645 = DIRECTION( '', ( 0.000000000000000, -1.00000000000000, 0.000000000000000 ) );
#3646 = DIRECTION( '', ( 0.000000000000000, -1.00000000000000, 0.000000000000000 ) );
#3647 = DIRECTION( '', ( 0.000000000000000, -1.00000000000000, 0.000000000000000 ) );
#3648 = DIRECTION( '', ( 0.000000000000000, -1.00000000000000, 0.000000000000000 ) );
#3649 = DIRECTION( '', ( 0.000000000000000, -1.00000000000000, 0.000000000000000 ) );
#3650 = DIRECTION( '', ( 0.000000000000000, -1.00000000000000, 0.000000000000000 ) );
#3651 = DIRECTION( '', ( 0.000000000000000, -1.00000000000000, 0.000000000000000 ) );
#3652 = DIRECTION( '', ( -0.000000000000000, -1.00000000000000, 0.000000000000000 ) );
#3653 = DIRECTION( '', ( -0.000000000000000, -1.00000000000000, 0.000000000000000 ) );
#3654 = DIRECTION( '', ( -0.000000000000000, -1.00000000000000, 0.000000000000000 ) );
#3655 = DIRECTION( '', ( -0.000000000000000, -1.00000000000000, 0.000000000000000 ) );
#3656 = DIRECTION( '', ( -0.000000000000000, -1.00000000000000, 0.000000000000000 ) );
#3657 = DIRECTION( '', ( -0.000000000000000, -1.00000000000000, 0.000000000000000 ) );
#3658 = DIRECTION( '', ( -0.000000000000000, -1.00000000000000, 0.000000000000000 ) );
#3659 = DIRECTION( '', ( -0.000000000000000, -1.00000000000000, 0.000000000000000 ) );
ENDSEC;
END-ISO-10303-21;
